* NGSPICE file created from csdac255_parax.ext - technology: sky130A

.subckt csdac255_parax Iout VPWR VGND Vbias data[0] data[1] data[2] data[3] data[4]
+ data[5] data[6] data[7] bias[0] bias[1] bias[2]
X0 XA.XIR[2].XIC_dummy_right.icell.SM XA.XIR[2].XIC_dummy_right.icell.Ien XA.XIR[2].XIC_dummy_right.icell.Iout VGND.t1530 sky130_fd_pr__nfet_g5v0d10v5 ad=0.0625 pd=0.75 as=0.175 ps=1.7 w=0.5 l=0.5
X1 VPWR.t1495 XThR.Tn[2].t12 XA.XIR[3].XIC[8].icell.PUM VPWR.t1494 sky130_fd_pr__pfet_01v8 ad=0.135 pd=1.54 as=0.0675 ps=0.77 w=0.5 l=0.15
X2 XA.XIR[12].XIC[10].icell.SM XA.XIR[12].XIC[10].icell.Ien Iout.t232 VGND.t2102 sky130_fd_pr__nfet_g5v0d10v5 ad=0.0625 pd=0.75 as=0.175 ps=1.7 w=0.5 l=0.5
X3 XA.XIR[11].XIC_dummy_right.icell.Ien VPWR.t381 VPWR.t383 VPWR.t382 sky130_fd_pr__pfet_01v8 ad=0.0725 pd=0.79 as=0.15 ps=1.6 w=0.5 l=0.15
X4 VGND.t812 XThC.Tn[10].t12 XA.XIR[4].XIC[10].icell.PDM VGND.t811 sky130_fd_pr__nfet_01v8 ad=0.0725 pd=0.79 as=0.0725 ps=0.79 w=0.5 l=0.15
X5 VGND.t2390 XThR.XTBN.Y a_n997_2667# VGND.t2352 sky130_fd_pr__nfet_01v8 ad=0.08775 pd=0.92 as=0.08775 ps=0.92 w=0.65 l=0.15
X6 VPWR.t1578 XThR.Tn[6].t12 XA.XIR[7].XIC[8].icell.PUM VPWR.t1577 sky130_fd_pr__pfet_01v8 ad=0.135 pd=1.54 as=0.0675 ps=0.77 w=0.5 l=0.15
X7 XA.XIR[14].XIC[5].icell.Ien XThR.Tn[14].t12 VPWR.t505 VPWR.t504 sky130_fd_pr__pfet_01v8 ad=0.0725 pd=0.79 as=0.15 ps=1.6 w=0.5 l=0.15
X8 XA.XIR[12].XIC[6].icell.PDM XThR.Tn[12].t12 XA.XIR[12].XIC[6].icell.Ien VGND.t2681 sky130_fd_pr__nfet_01v8 ad=0.0725 pd=0.79 as=0.2304 ps=2.18 w=0.5 l=0.15
X9 XThC.Tn[6].t3 XThC.XTBN.Y.t4 VGND.t1140 VGND.t1139 sky130_fd_pr__nfet_01v8 ad=0.08775 pd=0.92 as=0.169 ps=1.82 w=0.65 l=0.15
X10 XA.XIR[5].XIC_dummy_left.icell.PDM VPWR.t1926 VGND.t1506 VGND.t1505 sky130_fd_pr__nfet_01v8 ad=0.1312 pd=1.54 as=0.0725 ps=0.79 w=0.5 l=0.15
X11 XA.XIR[10].XIC[2].icell.PDM XThR.Tn[9].t12 VGND.t435 VGND.t434 sky130_fd_pr__nfet_01v8 ad=0.1312 pd=1.54 as=0.0725 ps=0.79 w=0.5 l=0.15
X12 VGND.t36 XThC.XTBN.Y.t5 XThC.Tn[5].t3 VGND.t35 sky130_fd_pr__nfet_01v8 ad=0.08775 pd=0.92 as=0.08775 ps=0.92 w=0.65 l=0.15
X13 XA.XIR[15].XIC[9].icell.PUM XThC.Tn[9].t12 XA.XIR[15].XIC[9].icell.Ien VPWR.t465 sky130_fd_pr__pfet_01v8 ad=0.0675 pd=0.77 as=0.0725 ps=0.79 w=0.5 l=0.15
X14 XA.XIR[9].XIC[0].icell.SM XA.XIR[9].XIC[0].icell.Ien Iout.t150 VGND.t1134 sky130_fd_pr__nfet_g5v0d10v5 ad=0.0625 pd=0.75 as=0.175 ps=1.7 w=0.5 l=0.5
X15 XA.XIR[13].XIC[3].icell.PDM XThR.Tn[12].t13 VGND.t2683 VGND.t2682 sky130_fd_pr__nfet_01v8 ad=0.1312 pd=1.54 as=0.0725 ps=0.79 w=0.5 l=0.15
X16 VGND.t2405 XThC.Tn[11].t12 XA.XIR[12].XIC[11].icell.PDM VGND.t2404 sky130_fd_pr__nfet_01v8 ad=0.0725 pd=0.79 as=0.0725 ps=0.79 w=0.5 l=0.15
X17 XA.XIR[12].XIC[1].icell.SM XA.XIR[12].XIC[1].icell.Ien Iout.t215 VGND.t1836 sky130_fd_pr__nfet_g5v0d10v5 ad=0.0625 pd=0.75 as=0.175 ps=1.7 w=0.5 l=0.5
X18 XA.XIR[8].XIC[12].icell.SM XA.XIR[8].XIC[12].icell.Ien Iout.t19 VGND.t147 sky130_fd_pr__nfet_g5v0d10v5 ad=0.0625 pd=0.75 as=0.175 ps=1.7 w=0.5 l=0.5
X19 XThC.Tn[12].t3 XThC.XTB5.Y VPWR.t503 VPWR.t496 sky130_fd_pr__pfet_01v8_hvt ad=0.135 pd=1.27 as=0.135 ps=1.27 w=1 l=0.15
X20 XA.XIR[8].XIC_15.icell.PDM VPWR.t1927 VGND.t1508 VGND.t1507 sky130_fd_pr__nfet_01v8 ad=0.1312 pd=1.54 as=0.0725 ps=0.79 w=0.5 l=0.15
X21 XA.XIR[7].XIC[13].icell.SM XA.XIR[7].XIC[13].icell.Ien Iout.t13 VGND.t117 sky130_fd_pr__nfet_g5v0d10v5 ad=0.0625 pd=0.75 as=0.175 ps=1.7 w=0.5 l=0.5
X22 XA.XIR[14].XIC[13].icell.PUM XThC.Tn[13].t12 XA.XIR[14].XIC[13].icell.Ien VPWR.t902 sky130_fd_pr__pfet_01v8 ad=0.0675 pd=0.77 as=0.0725 ps=0.79 w=0.5 l=0.15
X23 a_2979_9615# XThC.XTBN.Y.t6 XThC.Tn[0].t10 VPWR.t420 sky130_fd_pr__pfet_01v8_hvt ad=0.135 pd=1.27 as=0.135 ps=1.27 w=1 l=0.15
X24 XA.XIR[11].XIC_dummy_left.icell.PUM VPWR.t379 XA.XIR[11].XIC_dummy_left.icell.Ien VPWR.t380 sky130_fd_pr__pfet_01v8 ad=0.0675 pd=0.77 as=0.0725 ps=0.79 w=0.5 l=0.15
X25 XA.XIR[10].XIC[14].icell.SM XA.XIR[10].XIC[14].icell.Ien Iout.t93 VGND.t688 sky130_fd_pr__nfet_g5v0d10v5 ad=0.0625 pd=0.75 as=0.175 ps=1.7 w=0.5 l=0.5
X26 a_4861_9615# XThC.XTB4.Y.t2 VPWR.t980 VPWR.t637 sky130_fd_pr__pfet_01v8_hvt ad=0.135 pd=1.27 as=0.135 ps=1.27 w=1 l=0.15
X27 a_5949_9615# XThC.XTBN.Y.t7 XThC.Tn[5].t7 VPWR.t421 sky130_fd_pr__pfet_01v8_hvt ad=0.135 pd=1.27 as=0.135 ps=1.27 w=1 l=0.15
X28 XA.XIR[6].XIC[10].icell.PDM XThR.Tn[6].t13 XA.XIR[6].XIC[10].icell.Ien VGND.t1666 sky130_fd_pr__nfet_01v8 ad=0.0725 pd=0.79 as=0.2304 ps=2.18 w=0.5 l=0.15
X29 XA.XIR[0].XIC[4].icell.PDM VGND.t1077 VGND.t1079 VGND.t1078 sky130_fd_pr__nfet_01v8 ad=0.1312 pd=1.54 as=0.0725 ps=0.79 w=0.5 l=0.15
X30 XA.XIR[4].XIC[12].icell.PDM XThR.Tn[3].t12 VGND.t1441 VGND.t1440 sky130_fd_pr__nfet_01v8 ad=0.1312 pd=1.54 as=0.0725 ps=0.79 w=0.5 l=0.15
X31 XThR.Tn[5].t11 XThR.XTBN.Y a_n1049_5611# VPWR.t1756 sky130_fd_pr__pfet_01v8_hvt ad=0.135 pd=1.27 as=0.135 ps=1.27 w=1 l=0.15
X32 XThC.Tn[4].t3 XThC.XTB5.Y VGND.t146 VGND.t142 sky130_fd_pr__nfet_01v8 ad=0.08775 pd=0.92 as=0.08775 ps=0.92 w=0.65 l=0.15
X33 VGND.t38 XThC.XTBN.Y.t8 XThC.Tn[2].t9 VGND.t37 sky130_fd_pr__nfet_01v8 ad=0.08775 pd=0.92 as=0.08775 ps=0.92 w=0.65 l=0.15
X34 XThR.XTB2.Y XThR.XTB6.A VPWR.t448 VPWR.t447 sky130_fd_pr__pfet_01v8_hvt ad=0.135 pd=1.27 as=0.26 ps=2.52 w=1 l=0.15
X35 XA.XIR[7].XIC[13].icell.PDM XThR.Tn[6].t14 VGND.t1668 VGND.t1667 sky130_fd_pr__nfet_01v8 ad=0.1312 pd=1.54 as=0.0725 ps=0.79 w=0.5 l=0.15
X36 XA.XIR[6].XIC[11].icell.SM XA.XIR[6].XIC[11].icell.Ien Iout.t18 VGND.t140 sky130_fd_pr__nfet_g5v0d10v5 ad=0.0625 pd=0.75 as=0.175 ps=1.7 w=0.5 l=0.5
X37 VGND.t1324 XThC.Tn[2].t12 XA.XIR[12].XIC[2].icell.PDM VGND.t1323 sky130_fd_pr__nfet_01v8 ad=0.0725 pd=0.79 as=0.0725 ps=0.79 w=0.5 l=0.15
X38 VPWR.t378 VPWR.t376 XA.XIR[10].XIC_dummy_left.icell.PUM VPWR.t377 sky130_fd_pr__pfet_01v8 ad=0.135 pd=1.54 as=0.0675 ps=0.77 w=0.5 l=0.15
X39 VGND.t1510 VPWR.t1928 XA.XIR[7].XIC_dummy_left.icell.PDM VGND.t1509 sky130_fd_pr__nfet_01v8 ad=0.0725 pd=0.79 as=0.0725 ps=0.79 w=0.5 l=0.15
X40 VPWR.t1391 XThR.Tn[3].t13 XA.XIR[4].XIC[11].icell.PUM VPWR.t1390 sky130_fd_pr__pfet_01v8 ad=0.135 pd=1.54 as=0.0675 ps=0.77 w=0.5 l=0.15
X41 VGND.t789 Vbias.t6 XA.XIR[14].XIC[11].icell.SM VGND.t788 sky130_fd_pr__nfet_g5v0d10v5 ad=0.175 pd=1.7 as=0.0625 ps=0.75 w=0.5 l=0.5
X42 XA.XIR[2].XIC[1].icell.PUM XThC.Tn[1].t12 XA.XIR[2].XIC[1].icell.Ien VPWR.t763 sky130_fd_pr__pfet_01v8 ad=0.0675 pd=0.77 as=0.0725 ps=0.79 w=0.5 l=0.15
X43 VGND.t477 XThC.Tn[3].t12 XA.XIR[15].XIC[3].icell.PDM VGND.t476 sky130_fd_pr__nfet_01v8 ad=0.0725 pd=0.79 as=0.0725 ps=0.79 w=0.5 l=0.15
X44 VGND.t1512 VPWR.t1929 XA.XIR[10].XIC_15.icell.PDM VGND.t1511 sky130_fd_pr__nfet_01v8 ad=0.0725 pd=0.79 as=0.0725 ps=0.79 w=0.5 l=0.15
X45 VPWR.t879 XThR.Tn[10].t12 XA.XIR[11].XIC[9].icell.PUM VPWR.t878 sky130_fd_pr__pfet_01v8 ad=0.135 pd=1.54 as=0.0675 ps=0.77 w=0.5 l=0.15
X46 XA.XIR[0].XIC[14].icell.PUM XThC.Tn[14].t12 XA.XIR[0].XIC[14].icell.Ien VPWR.t1038 sky130_fd_pr__pfet_01v8 ad=0.0675 pd=0.77 as=0.0725 ps=0.79 w=0.5 l=0.15
X47 XA.XIR[13].XIC_dummy_left.icell.Ien VPWR.t373 VPWR.t375 VPWR.t374 sky130_fd_pr__pfet_01v8 ad=0.0725 pd=0.79 as=0.15 ps=1.6 w=0.5 l=0.15
X48 a_7651_9569# XThC.XTB1.Y.t3 XThC.Tn[8].t11 VGND.t87 sky130_fd_pr__nfet_01v8 ad=0.08775 pd=0.92 as=0.08775 ps=0.92 w=0.65 l=0.15
X49 VGND.t791 Vbias.t7 XA.XIR[2].XIC[5].icell.SM VGND.t790 sky130_fd_pr__nfet_g5v0d10v5 ad=0.175 pd=1.7 as=0.0625 ps=0.75 w=0.5 l=0.5
X50 XA.XIR[1].XIC[6].icell.Ien XThR.Tn[1].t12 VPWR.t1598 VPWR.t1597 sky130_fd_pr__pfet_01v8 ad=0.0725 pd=0.79 as=0.15 ps=1.6 w=0.5 l=0.15
X51 a_10051_9569# XThC.XTB6.Y XThC.Tn[13].t11 VGND.t632 sky130_fd_pr__nfet_01v8 ad=0.169 pd=1.82 as=0.08775 ps=0.92 w=0.65 l=0.15
X52 VGND.t1802 XThC.Tn[4].t12 XA.XIR[2].XIC[4].icell.PDM VGND.t1801 sky130_fd_pr__nfet_01v8 ad=0.0725 pd=0.79 as=0.0725 ps=0.79 w=0.5 l=0.15
X53 XThC.XTB5.Y XThC.XTB7.B VGND.t1184 VGND.t142 sky130_fd_pr__nfet_01v8 ad=0.08775 pd=0.92 as=0.169 ps=1.82 w=0.65 l=0.15
X54 XThC.Tn[7].t3 XThC.XTBN.Y.t9 VPWR.t423 VPWR.t422 sky130_fd_pr__pfet_01v8_hvt ad=0.135 pd=1.27 as=0.26 ps=2.52 w=1 l=0.15
X55 XA.XIR[10].XIC[6].icell.PDM XThR.Tn[9].t13 VGND.t437 VGND.t436 sky130_fd_pr__nfet_01v8 ad=0.1312 pd=1.54 as=0.0725 ps=0.79 w=0.5 l=0.15
X56 VGND.t1369 XThR.XTB7.Y XThR.Tn[6].t3 VGND.t1368 sky130_fd_pr__nfet_01v8 ad=0.08775 pd=0.92 as=0.08775 ps=0.92 w=0.65 l=0.15
X57 XA.XIR[4].XIC[7].icell.Ien XThR.Tn[4].t12 VPWR.t1636 VPWR.t1635 sky130_fd_pr__pfet_01v8 ad=0.0725 pd=0.79 as=0.15 ps=1.6 w=0.5 l=0.15
X58 VPWR.t1820 XThR.XTBN.Y XThR.Tn[9].t11 VPWR.t1807 sky130_fd_pr__pfet_01v8_hvt ad=0.135 pd=1.27 as=0.135 ps=1.27 w=1 l=0.15
X59 XThR.XTB7.Y XThR.XTB7.A VGND.t1591 VGND.t1590 sky130_fd_pr__nfet_01v8 ad=0.08775 pd=0.92 as=0.169 ps=1.82 w=0.65 l=0.15
X60 XA.XIR[3].XIC[8].icell.Ien XThR.Tn[3].t14 VPWR.t1393 VPWR.t1392 sky130_fd_pr__pfet_01v8 ad=0.0725 pd=0.79 as=0.15 ps=1.6 w=0.5 l=0.15
X61 VPWR.t1395 XThR.Tn[3].t15 XA.XIR[4].XIC[2].icell.PUM VPWR.t1394 sky130_fd_pr__pfet_01v8 ad=0.135 pd=1.54 as=0.0675 ps=0.77 w=0.5 l=0.15
X62 XA.XIR[13].XIC[7].icell.PDM XThR.Tn[12].t14 VGND.t2685 VGND.t2684 sky130_fd_pr__nfet_01v8 ad=0.1312 pd=1.54 as=0.0725 ps=0.79 w=0.5 l=0.15
X63 XA.XIR[1].XIC[9].icell.PDM XThR.Tn[1].t13 XA.XIR[1].XIC[9].icell.Ien VGND.t1705 sky130_fd_pr__nfet_01v8 ad=0.0725 pd=0.79 as=0.2304 ps=2.18 w=0.5 l=0.15
X64 VPWR.t1493 XThR.Tn[2].t13 XA.XIR[3].XIC[3].icell.PUM VPWR.t1492 sky130_fd_pr__pfet_01v8 ad=0.135 pd=1.54 as=0.0675 ps=0.77 w=0.5 l=0.15
X65 XA.XIR[5].XIC_dummy_left.icell.SM XA.XIR[5].XIC_dummy_left.icell.Ien XA.XIR[5].XIC_dummy_left.icell.Iout VGND.t357 sky130_fd_pr__nfet_g5v0d10v5 ad=0.0625 pd=0.75 as=0.175 ps=1.7 w=0.5 l=0.5
X66 VPWR.t1580 XThR.Tn[6].t15 XA.XIR[7].XIC[3].icell.PUM VPWR.t1579 sky130_fd_pr__pfet_01v8 ad=0.135 pd=1.54 as=0.0675 ps=0.77 w=0.5 l=0.15
X67 VPWR.t372 VPWR.t370 XA.XIR[2].XIC_15.icell.PUM VPWR.t371 sky130_fd_pr__pfet_01v8 ad=0.135 pd=1.54 as=0.0675 ps=0.77 w=0.5 l=0.15
X68 a_6243_9615# XThC.XTB7.Y VPWR.t1212 VPWR.t584 sky130_fd_pr__pfet_01v8_hvt ad=0.28 pd=2.56 as=0.135 ps=1.27 w=1 l=0.15
X69 XA.XIR[11].XIC[14].icell.PDM XThR.Tn[11].t12 XA.XIR[11].XIC[14].icell.Ien VGND.t1574 sky130_fd_pr__nfet_01v8 ad=0.0725 pd=0.79 as=0.2304 ps=2.18 w=0.5 l=0.15
X70 XA.XIR[11].XIC[8].icell.PDM XThR.Tn[11].t13 XA.XIR[11].XIC[8].icell.Ien VGND.t1575 sky130_fd_pr__nfet_01v8 ad=0.0725 pd=0.79 as=0.2304 ps=2.18 w=0.5 l=0.15
X71 XA.XIR[4].XIC[10].icell.PDM XThR.Tn[3].t16 VGND.t1443 VGND.t1442 sky130_fd_pr__nfet_01v8 ad=0.1312 pd=1.54 as=0.0725 ps=0.79 w=0.5 l=0.15
X72 XThR.Tn[7].t3 XThR.XTBN.Y VPWR.t1819 VPWR.t1818 sky130_fd_pr__pfet_01v8_hvt ad=0.135 pd=1.27 as=0.26 ps=2.52 w=1 l=0.15
X73 XA.XIR[1].XIC[12].icell.PDM XThR.Tn[0].t12 VGND.t753 VGND.t752 sky130_fd_pr__nfet_01v8 ad=0.1312 pd=1.54 as=0.0725 ps=0.79 w=0.5 l=0.15
X74 a_8963_9569# XThC.XTBN.Y.t10 VGND.t40 VGND.t39 sky130_fd_pr__nfet_01v8 ad=0.08775 pd=0.92 as=0.08775 ps=0.92 w=0.65 l=0.15
X75 VGND.t793 Vbias.t8 XA.XIR[12].XIC[7].icell.SM VGND.t792 sky130_fd_pr__nfet_g5v0d10v5 ad=0.175 pd=1.7 as=0.0625 ps=0.75 w=0.5 l=0.5
X76 VGND.t2546 XThC.Tn[6].t12 XA.XIR[12].XIC[6].icell.PDM VGND.t2545 sky130_fd_pr__nfet_01v8 ad=0.0725 pd=0.79 as=0.0725 ps=0.79 w=0.5 l=0.15
X77 XA.XIR[6].XIC[9].icell.SM XA.XIR[6].XIC[9].icell.Ien Iout.t111 VGND.t781 sky130_fd_pr__nfet_g5v0d10v5 ad=0.0625 pd=0.75 as=0.175 ps=1.7 w=0.5 l=0.5
X78 XA.XIR[2].XIC_dummy_left.icell.SM XA.XIR[2].XIC_dummy_left.icell.Ien XA.XIR[2].XIC_dummy_left.icell.Iout VGND.t639 sky130_fd_pr__nfet_g5v0d10v5 ad=0.0625 pd=0.75 as=0.175 ps=1.7 w=0.5 l=0.5
X79 XA.XIR[3].XIC[11].icell.SM XA.XIR[3].XIC[11].icell.Ien Iout.t176 VGND.t1372 sky130_fd_pr__nfet_g5v0d10v5 ad=0.0625 pd=0.75 as=0.175 ps=1.7 w=0.5 l=0.5
X80 VGND.t1514 VPWR.t1930 XA.XIR[4].XIC_dummy_left.icell.PDM VGND.t1513 sky130_fd_pr__nfet_01v8 ad=0.0725 pd=0.79 as=0.0725 ps=0.79 w=0.5 l=0.15
X81 VGND.t2389 XThR.XTBN.Y XThR.Tn[5].t7 VGND.t2372 sky130_fd_pr__nfet_01v8 ad=0.169 pd=1.82 as=0.08775 ps=0.92 w=0.65 l=0.15
X82 VGND.t795 Vbias.t9 XA.XIR[15].XIC[8].icell.SM VGND.t794 sky130_fd_pr__nfet_g5v0d10v5 ad=0.175 pd=1.7 as=0.0625 ps=0.75 w=0.5 l=0.5
X83 VGND.t797 Vbias.t10 XA.XIR[14].XIC[9].icell.SM VGND.t796 sky130_fd_pr__nfet_g5v0d10v5 ad=0.175 pd=1.7 as=0.0625 ps=0.75 w=0.5 l=0.5
X84 VGND.t775 XThC.Tn[7].t8 XA.XIR[15].XIC[7].icell.PDM VGND.t774 sky130_fd_pr__nfet_01v8 ad=0.0725 pd=0.79 as=0.0725 ps=0.79 w=0.5 l=0.15
X85 VGND.t2407 XThC.Tn[11].t13 XA.XIR[6].XIC[11].icell.PDM VGND.t2406 sky130_fd_pr__nfet_01v8 ad=0.0725 pd=0.79 as=0.0725 ps=0.79 w=0.5 l=0.15
X86 VGND.t471 XThC.Tn[1].t13 XA.XIR[3].XIC[1].icell.PDM VGND.t470 sky130_fd_pr__nfet_01v8 ad=0.0725 pd=0.79 as=0.0725 ps=0.79 w=0.5 l=0.15
X87 XA.XIR[4].XIC[11].icell.Ien XThR.Tn[4].t13 VPWR.t1638 VPWR.t1637 sky130_fd_pr__pfet_01v8 ad=0.0725 pd=0.79 as=0.15 ps=1.6 w=0.5 l=0.15
X88 VPWR.t1102 XThR.XTB6.Y a_n1049_5611# VPWR.t1101 sky130_fd_pr__pfet_01v8_hvt ad=0.135 pd=1.27 as=0.28 ps=2.56 w=1 l=0.15
X89 XA.XIR[14].XIC[6].icell.PUM XThC.Tn[6].t13 XA.XIR[14].XIC[6].icell.Ien VPWR.t1874 sky130_fd_pr__pfet_01v8 ad=0.0675 pd=0.77 as=0.0725 ps=0.79 w=0.5 l=0.15
X90 VGND.t799 Vbias.t11 XA.XIR[9].XIC[7].icell.SM VGND.t798 sky130_fd_pr__nfet_g5v0d10v5 ad=0.175 pd=1.7 as=0.0625 ps=0.75 w=0.5 l=0.5
X91 VGND.t1326 XThC.Tn[2].t13 XA.XIR[6].XIC[2].icell.PDM VGND.t1325 sky130_fd_pr__nfet_01v8 ad=0.0725 pd=0.79 as=0.0725 ps=0.79 w=0.5 l=0.15
X92 XA.XIR[11].XIC[9].icell.Ien XThR.Tn[11].t14 VPWR.t1533 VPWR.t1532 sky130_fd_pr__pfet_01v8 ad=0.0725 pd=0.79 as=0.15 ps=1.6 w=0.5 l=0.15
X93 XA.XIR[6].XIC_dummy_left.icell.PDM VPWR.t1931 XA.XIR[6].XIC_dummy_left.icell.Ien VGND.t1515 sky130_fd_pr__nfet_01v8 ad=0.0725 pd=0.79 as=0.2304 ps=2.18 w=0.5 l=0.15
X94 VGND.t304 Vbias.t0 Vbias.t1 VGND.t303 sky130_fd_pr__nfet_g5v0d10v5 ad=0.725 pd=5.58 as=0.725 ps=5.58 w=2.5 l=1
X95 a_n1049_7787# XThR.XTB2.Y VPWR.t464 VPWR.t463 sky130_fd_pr__pfet_01v8_hvt ad=0.135 pd=1.27 as=0.135 ps=1.27 w=1 l=0.15
X96 VGND.t121 XThC.Tn[9].t13 XA.XIR[14].XIC[9].icell.PDM VGND.t120 sky130_fd_pr__nfet_01v8 ad=0.0725 pd=0.79 as=0.0725 ps=0.79 w=0.5 l=0.15
X97 XA.XIR[8].XIC[11].icell.PDM XThR.Tn[8].t12 XA.XIR[8].XIC[11].icell.Ien VGND.t1583 sky130_fd_pr__nfet_01v8 ad=0.0725 pd=0.79 as=0.2304 ps=2.18 w=0.5 l=0.15
X98 VGND.t801 Vbias.t12 XA.XIR[2].XIC[0].icell.SM VGND.t800 sky130_fd_pr__nfet_g5v0d10v5 ad=0.175 pd=1.7 as=0.0625 ps=0.75 w=0.5 l=0.5
X99 XA.XIR[1].XIC[1].icell.Ien XThR.Tn[1].t14 VPWR.t1562 VPWR.t1561 sky130_fd_pr__pfet_01v8 ad=0.0725 pd=0.79 as=0.15 ps=1.6 w=0.5 l=0.15
X100 XA.XIR[13].XIC[4].icell.PUM XThC.Tn[4].t13 XA.XIR[13].XIC[4].icell.Ien VPWR.t1657 sky130_fd_pr__pfet_01v8 ad=0.0675 pd=0.77 as=0.0725 ps=0.79 w=0.5 l=0.15
X101 XA.XIR[8].XIC_dummy_right.icell.PUM VPWR.t368 XA.XIR[8].XIC_dummy_right.icell.Ien VPWR.t369 sky130_fd_pr__pfet_01v8 ad=0.0675 pd=0.77 as=0.0725 ps=0.79 w=0.5 l=0.15
X102 VGND.t803 Vbias.t13 XA.XIR[0].XIC[13].icell.SM VGND.t802 sky130_fd_pr__nfet_g5v0d10v5 ad=0.175 pd=1.7 as=0.0625 ps=0.75 w=0.5 l=0.5
X103 XA.XIR[1].XIC[10].icell.PDM XThR.Tn[0].t13 VGND.t755 VGND.t754 sky130_fd_pr__nfet_01v8 ad=0.1312 pd=1.54 as=0.0725 ps=0.79 w=0.5 l=0.15
X104 XA.XIR[4].XIC[2].icell.Ien XThR.Tn[4].t14 VPWR.t1640 VPWR.t1639 sky130_fd_pr__pfet_01v8 ad=0.0725 pd=0.79 as=0.15 ps=1.6 w=0.5 l=0.15
X105 XA.XIR[9].XIC[14].icell.PDM XThR.Tn[8].t13 VGND.t1585 VGND.t1584 sky130_fd_pr__nfet_01v8 ad=0.1312 pd=1.54 as=0.0725 ps=0.79 w=0.5 l=0.15
X106 XA.XIR[9].XIC[8].icell.PDM XThR.Tn[8].t14 VGND.t1587 VGND.t1586 sky130_fd_pr__nfet_01v8 ad=0.1312 pd=1.54 as=0.0725 ps=0.79 w=0.5 l=0.15
X107 XA.XIR[3].XIC[3].icell.Ien XThR.Tn[3].t17 VPWR.t1397 VPWR.t1396 sky130_fd_pr__pfet_01v8 ad=0.0725 pd=0.79 as=0.15 ps=1.6 w=0.5 l=0.15
X108 VGND.t2450 XThC.Tn[12].t12 XA.XIR[0].XIC[12].icell.PDM VGND.t2449 sky130_fd_pr__nfet_01v8 ad=0.0725 pd=0.79 as=0.0725 ps=0.79 w=0.5 l=0.15
X109 VPWR.t581 XThC.XTB3.Y.t3 a_4067_9615# VPWR.t580 sky130_fd_pr__pfet_01v8_hvt ad=0.135 pd=1.27 as=0.135 ps=1.27 w=1 l=0.15
X110 XA.XIR[1].XIC[4].icell.PDM XThR.Tn[1].t15 XA.XIR[1].XIC[4].icell.Ien VGND.t1605 sky130_fd_pr__nfet_01v8 ad=0.0725 pd=0.79 as=0.2304 ps=2.18 w=0.5 l=0.15
X111 XA.XIR[5].XIC[1].icell.PDM XThR.Tn[5].t12 XA.XIR[5].XIC[1].icell.Ien VGND.t431 sky130_fd_pr__nfet_01v8 ad=0.0725 pd=0.79 as=0.2304 ps=2.18 w=0.5 l=0.15
X112 VPWR.t1671 data[4].t0 a_n1335_4229# VPWR.t1670 sky130_fd_pr__pfet_01v8_hvt ad=0.26 pd=2.52 as=0.105 ps=1.21 w=1 l=0.15
X113 XA.XIR[2].XIC_15.icell.Ien XThR.Tn[2].t14 VPWR.t1491 VPWR.t1490 sky130_fd_pr__pfet_01v8 ad=0.0725 pd=0.79 as=0.15 ps=1.6 w=0.5 l=0.15
X114 XA.XIR[3].XIC[9].icell.SM XA.XIR[3].XIC[9].icell.Ien Iout.t140 VGND.t931 sky130_fd_pr__nfet_g5v0d10v5 ad=0.0625 pd=0.75 as=0.175 ps=1.7 w=0.5 l=0.5
X115 XA.XIR[9].XIC[1].icell.PDM XThR.Tn[9].t14 XA.XIR[9].XIC[1].icell.Ien VGND.t438 sky130_fd_pr__nfet_01v8 ad=0.0725 pd=0.79 as=0.2304 ps=2.18 w=0.5 l=0.15
X116 VGND.t2388 XThR.XTBN.Y XThR.Tn[7].t7 VGND.t2387 sky130_fd_pr__nfet_01v8 ad=0.08775 pd=0.92 as=0.08775 ps=0.92 w=0.65 l=0.15
X117 XA.XIR[4].XIC[5].icell.PDM XThR.Tn[4].t15 XA.XIR[4].XIC[5].icell.Ien VGND.t1770 sky130_fd_pr__nfet_01v8 ad=0.0725 pd=0.79 as=0.2304 ps=2.18 w=0.5 l=0.15
X118 a_n1319_5317# XThR.XTB7.A VPWR.t1535 VPWR.t445 sky130_fd_pr__pfet_01v8_hvt ad=0.105 pd=1.21 as=0.26 ps=2.52 w=1 l=0.15
X119 XA.XIR[8].XIC[2].icell.PDM XThR.Tn[8].t15 XA.XIR[8].XIC[2].icell.Ien VGND.t596 sky130_fd_pr__nfet_01v8 ad=0.0725 pd=0.79 as=0.2304 ps=2.18 w=0.5 l=0.15
X120 VPWR.t403 XThR.Tn[13].t12 XA.XIR[14].XIC[14].icell.PUM VPWR.t402 sky130_fd_pr__pfet_01v8 ad=0.135 pd=1.54 as=0.0675 ps=0.77 w=0.5 l=0.15
X121 XA.XIR[11].XIC[3].icell.PDM XThR.Tn[11].t15 XA.XIR[11].XIC[3].icell.Ien VGND.t1239 sky130_fd_pr__nfet_01v8 ad=0.0725 pd=0.79 as=0.2304 ps=2.18 w=0.5 l=0.15
X122 XA.XIR[7].XIC[8].icell.PUM XThC.Tn[8].t12 XA.XIR[7].XIC[8].icell.Ien VPWR.t1144 sky130_fd_pr__pfet_01v8 ad=0.0675 pd=0.77 as=0.0725 ps=0.79 w=0.5 l=0.15
X123 XThC.Tn[9].t7 XThC.XTB2.Y VPWR.t1741 VPWR.t640 sky130_fd_pr__pfet_01v8_hvt ad=0.135 pd=1.27 as=0.135 ps=1.27 w=1 l=0.15
X124 XA.XIR[15].XIC[4].icell.Ien VPWR.t365 VPWR.t367 VPWR.t366 sky130_fd_pr__pfet_01v8 ad=0.0725 pd=0.79 as=0.15 ps=1.6 w=0.5 l=0.15
X125 VGND.t805 Vbias.t14 XA.XIR[12].XIC[2].icell.SM VGND.t804 sky130_fd_pr__nfet_g5v0d10v5 ad=0.175 pd=1.7 as=0.0625 ps=0.75 w=0.5 l=0.5
X126 XA.XIR[6].XIC[4].icell.SM XA.XIR[6].XIC[4].icell.Ien Iout.t159 VGND.t1188 sky130_fd_pr__nfet_g5v0d10v5 ad=0.0625 pd=0.75 as=0.175 ps=1.7 w=0.5 l=0.5
X127 VGND.t2051 Vbias.t15 XA.XIR[11].XIC_15.icell.SM VGND.t2050 sky130_fd_pr__nfet_g5v0d10v5 ad=0.175 pd=1.7 as=0.0625 ps=0.75 w=0.5 l=0.5
X128 XA.XIR[10].XIC_dummy_right.icell.Ien VPWR.t362 VPWR.t364 VPWR.t363 sky130_fd_pr__pfet_01v8 ad=0.0725 pd=0.79 as=0.15 ps=1.6 w=0.5 l=0.15
X129 XThC.Tn[5].t2 XThC.XTBN.Y.t11 VGND.t41 VGND.t35 sky130_fd_pr__nfet_01v8 ad=0.08775 pd=0.92 as=0.08775 ps=0.92 w=0.65 l=0.15
X130 XA.XIR[1].XIC_dummy_right.icell.SM XA.XIR[1].XIC_dummy_right.icell.Ien XA.XIR[1].XIC_dummy_right.icell.Iout VGND.t1596 sky130_fd_pr__nfet_g5v0d10v5 ad=0.0625 pd=0.75 as=0.175 ps=1.7 w=0.5 l=0.5
X131 VGND.t2053 Vbias.t16 XA.XIR[15].XIC[3].icell.SM VGND.t2052 sky130_fd_pr__nfet_g5v0d10v5 ad=0.175 pd=1.7 as=0.0625 ps=0.75 w=0.5 l=0.5
X132 VGND.t2055 Vbias.t17 XA.XIR[14].XIC[4].icell.SM VGND.t2054 sky130_fd_pr__nfet_g5v0d10v5 ad=0.175 pd=1.7 as=0.0625 ps=0.75 w=0.5 l=0.5
X133 VGND.t2548 XThC.Tn[6].t14 XA.XIR[6].XIC[6].icell.PDM VGND.t2547 sky130_fd_pr__nfet_01v8 ad=0.0725 pd=0.79 as=0.0725 ps=0.79 w=0.5 l=0.15
X134 VPWR.t840 XThR.Tn[8].t16 XA.XIR[9].XIC[4].icell.PUM VPWR.t839 sky130_fd_pr__pfet_01v8 ad=0.135 pd=1.54 as=0.0675 ps=0.77 w=0.5 l=0.15
X135 VPWR.t1909 XThR.Tn[12].t15 XA.XIR[13].XIC[12].icell.PUM VPWR.t1908 sky130_fd_pr__pfet_01v8 ad=0.135 pd=1.54 as=0.0675 ps=0.77 w=0.5 l=0.15
X136 VGND.t1076 VGND.t1074 XA.XIR[13].XIC_dummy_right.icell.SM VGND.t1075 sky130_fd_pr__nfet_g5v0d10v5 ad=0.175 pd=1.7 as=0.0625 ps=0.75 w=0.5 l=0.5
X137 XThR.Tn[9].t7 XThR.XTB2.Y a_n997_3755# VGND.t107 sky130_fd_pr__nfet_01v8 ad=0.08775 pd=0.92 as=0.169 ps=1.82 w=0.65 l=0.15
X138 XThC.Tn[0].t9 XThC.XTBN.Y.t12 a_2979_9615# VPWR.t424 sky130_fd_pr__pfet_01v8_hvt ad=0.135 pd=1.27 as=0.135 ps=1.27 w=1 l=0.15
X139 XA.XIR[4].XIC_dummy_left.icell.PDM VPWR.t1932 VGND.t1517 VGND.t1516 sky130_fd_pr__nfet_01v8 ad=0.1312 pd=1.54 as=0.0725 ps=0.79 w=0.5 l=0.15
X140 XThC.Tn[5].t6 XThC.XTBN.Y.t13 a_5949_9615# VPWR.t421 sky130_fd_pr__pfet_01v8_hvt ad=0.135 pd=1.27 as=0.27 ps=2.54 w=1 l=0.15
X141 VGND.t145 XThC.XTB5.Y XThC.Tn[4].t2 VGND.t142 sky130_fd_pr__nfet_01v8 ad=0.08775 pd=0.92 as=0.08775 ps=0.92 w=0.65 l=0.15
X142 XA.XIR[14].XIC[1].icell.PUM XThC.Tn[1].t14 XA.XIR[14].XIC[1].icell.Ien VPWR.t764 sky130_fd_pr__pfet_01v8 ad=0.0675 pd=0.77 as=0.0725 ps=0.79 w=0.5 l=0.15
X143 VGND.t2057 Vbias.t18 XA.XIR[9].XIC[2].icell.SM VGND.t2056 sky130_fd_pr__nfet_g5v0d10v5 ad=0.175 pd=1.7 as=0.0625 ps=0.75 w=0.5 l=0.5
X144 a_9827_9569# XThC.XTB5.Y XThC.Tn[12].t7 VGND.t141 sky130_fd_pr__nfet_01v8 ad=0.169 pd=1.82 as=0.08775 ps=0.92 w=0.65 l=0.15
X145 XA.XIR[13].XIC[0].icell.PUM XThC.Tn[0].t12 XA.XIR[13].XIC[0].icell.Ien VPWR.t987 sky130_fd_pr__pfet_01v8 ad=0.0675 pd=0.77 as=0.0725 ps=0.79 w=0.5 l=0.15
X146 XThC.Tn[7].t7 XThC.XTBN.Y.t14 VGND.t43 VGND.t42 sky130_fd_pr__nfet_01v8 ad=0.08775 pd=0.92 as=0.169 ps=1.82 w=0.65 l=0.15
X147 XThC.Tn[2].t8 XThC.XTBN.Y.t15 VGND.t44 VGND.t37 sky130_fd_pr__nfet_01v8 ad=0.08775 pd=0.92 as=0.169 ps=1.82 w=0.65 l=0.15
X148 VGND.t814 XThC.Tn[10].t13 XA.XIR[0].XIC[10].icell.PDM VGND.t813 sky130_fd_pr__nfet_01v8 ad=0.0725 pd=0.79 as=0.0725 ps=0.79 w=0.5 l=0.15
X149 a_n997_1579# XThR.XTBN.Y VGND.t2386 VGND.t2370 sky130_fd_pr__nfet_01v8 ad=0.08775 pd=0.92 as=0.08775 ps=0.92 w=0.65 l=0.15
X150 XA.XIR[6].XIC[14].icell.PDM XThR.Tn[5].t13 VGND.t433 VGND.t432 sky130_fd_pr__nfet_01v8 ad=0.1312 pd=1.54 as=0.0725 ps=0.79 w=0.5 l=0.15
X151 XA.XIR[6].XIC[8].icell.PDM XThR.Tn[5].t14 VGND.t691 VGND.t690 sky130_fd_pr__nfet_01v8 ad=0.1312 pd=1.54 as=0.0725 ps=0.79 w=0.5 l=0.15
X152 XA.XIR[10].XIC_dummy_left.icell.PUM VPWR.t360 XA.XIR[10].XIC_dummy_left.icell.Ien VPWR.t361 sky130_fd_pr__pfet_01v8 ad=0.0675 pd=0.77 as=0.0725 ps=0.79 w=0.5 l=0.15
X153 XA.XIR[9].XIC[14].icell.SM XA.XIR[9].XIC[14].icell.Ien Iout.t124 VGND.t886 sky130_fd_pr__nfet_g5v0d10v5 ad=0.0625 pd=0.75 as=0.175 ps=1.7 w=0.5 l=0.5
X154 VGND.t1804 XThC.Tn[4].t14 XA.XIR[14].XIC[4].icell.PDM VGND.t1803 sky130_fd_pr__nfet_01v8 ad=0.0725 pd=0.79 as=0.0725 ps=0.79 w=0.5 l=0.15
X155 XA.XIR[8].XIC[6].icell.PDM XThR.Tn[8].t17 XA.XIR[8].XIC[6].icell.Ien VGND.t597 sky130_fd_pr__nfet_01v8 ad=0.0725 pd=0.79 as=0.2304 ps=2.18 w=0.5 l=0.15
X156 XA.XIR[1].XIC[7].icell.PUM XThC.Tn[7].t9 XA.XIR[1].XIC[7].icell.Ien VPWR.t982 sky130_fd_pr__pfet_01v8 ad=0.0675 pd=0.77 as=0.0725 ps=0.79 w=0.5 l=0.15
X157 XA.XIR[7].XIC[1].icell.PDM XThR.Tn[6].t16 VGND.t1670 VGND.t1669 sky130_fd_pr__nfet_01v8 ad=0.1312 pd=1.54 as=0.0725 ps=0.79 w=0.5 l=0.15
X158 XA.XIR[2].XIC[5].icell.PDM XThR.Tn[1].t16 VGND.t1607 VGND.t1606 sky130_fd_pr__nfet_01v8 ad=0.1312 pd=1.54 as=0.0725 ps=0.79 w=0.5 l=0.15
X159 XA.XIR[11].XIC[7].icell.PDM XThR.Tn[11].t16 XA.XIR[11].XIC[7].icell.Ien VGND.t1240 sky130_fd_pr__nfet_01v8 ad=0.0725 pd=0.79 as=0.2304 ps=2.18 w=0.5 l=0.15
X160 XA.XIR[4].XIC[8].icell.PUM XThC.Tn[8].t13 XA.XIR[4].XIC[8].icell.Ien VPWR.t632 sky130_fd_pr__pfet_01v8 ad=0.0675 pd=0.77 as=0.0725 ps=0.79 w=0.5 l=0.15
X161 XA.XIR[9].XIC[3].icell.PDM XThR.Tn[8].t18 VGND.t599 VGND.t598 sky130_fd_pr__nfet_01v8 ad=0.1312 pd=1.54 as=0.0725 ps=0.79 w=0.5 l=0.15
X162 XA.XIR[0].XIC_15.icell.SM XA.XIR[0].XIC_15.icell.Ien Iout.t75 VGND.t558 sky130_fd_pr__nfet_g5v0d10v5 ad=0.0625 pd=0.75 as=0.175 ps=1.7 w=0.5 l=0.5
X163 XA.XIR[4].XIC[12].icell.SM XA.XIR[4].XIC[12].icell.Ien Iout.t179 VGND.t1415 sky130_fd_pr__nfet_g5v0d10v5 ad=0.0625 pd=0.75 as=0.175 ps=1.7 w=0.5 l=0.5
X164 XA.XIR[14].XIC[9].icell.PDM XThR.Tn[13].t13 VGND.t23 VGND.t22 sky130_fd_pr__nfet_01v8 ad=0.1312 pd=1.54 as=0.0725 ps=0.79 w=0.5 l=0.15
X165 XA.XIR[11].XIC[12].icell.PUM XThC.Tn[12].t13 XA.XIR[11].XIC[12].icell.Ien VPWR.t1859 sky130_fd_pr__pfet_01v8 ad=0.0675 pd=0.77 as=0.0725 ps=0.79 w=0.5 l=0.15
X166 XA.XIR[12].XIC[4].icell.Ien XThR.Tn[12].t16 VPWR.t1911 VPWR.t1910 sky130_fd_pr__pfet_01v8 ad=0.0725 pd=0.79 as=0.15 ps=1.6 w=0.5 l=0.15
X167 XA.XIR[3].XIC[4].icell.SM XA.XIR[3].XIC[4].icell.Ien Iout.t106 VGND.t772 sky130_fd_pr__nfet_g5v0d10v5 ad=0.0625 pd=0.75 as=0.175 ps=1.7 w=0.5 l=0.5
X168 XA.XIR[15].XIC[0].icell.Ien VPWR.t357 VPWR.t359 VPWR.t358 sky130_fd_pr__pfet_01v8 ad=0.0725 pd=0.79 as=0.15 ps=1.6 w=0.5 l=0.15
X169 VGND.t2059 Vbias.t19 XA.XIR[8].XIC_15.icell.SM VGND.t2058 sky130_fd_pr__nfet_g5v0d10v5 ad=0.175 pd=1.7 as=0.0625 ps=0.75 w=0.5 l=0.5
X170 VGND.t853 XThC.Tn[14].t13 XA.XIR[8].XIC[14].icell.PDM VGND.t852 sky130_fd_pr__nfet_01v8 ad=0.0725 pd=0.79 as=0.0725 ps=0.79 w=0.5 l=0.15
X171 XA.XIR[7].XIC_dummy_right.icell.Ien VPWR.t354 VPWR.t356 VPWR.t355 sky130_fd_pr__pfet_01v8 ad=0.0725 pd=0.79 as=0.15 ps=1.6 w=0.5 l=0.15
X172 XA.XIR[4].XIC[0].icell.PDM XThR.Tn[4].t16 XA.XIR[4].XIC[0].icell.Ien VGND.t1771 sky130_fd_pr__nfet_01v8 ad=0.0725 pd=0.79 as=0.2304 ps=2.18 w=0.5 l=0.15
X173 VGND.t306 XThC.Tn[8].t14 XA.XIR[8].XIC[8].icell.PDM VGND.t305 sky130_fd_pr__nfet_01v8 ad=0.0725 pd=0.79 as=0.0725 ps=0.79 w=0.5 l=0.15
X174 XA.XIR[14].XIC[14].icell.Ien XThR.Tn[14].t13 VPWR.t521 VPWR.t520 sky130_fd_pr__pfet_01v8 ad=0.0725 pd=0.79 as=0.15 ps=1.6 w=0.5 l=0.15
X175 VGND.t46 XThC.XTBN.Y.t16 XThC.Tn[1].t7 VGND.t45 sky130_fd_pr__nfet_01v8 ad=0.08775 pd=0.92 as=0.08775 ps=0.92 w=0.65 l=0.15
X176 VGND.t2061 Vbias.t20 XA.XIR[1].XIC[5].icell.SM VGND.t2060 sky130_fd_pr__nfet_g5v0d10v5 ad=0.175 pd=1.7 as=0.0625 ps=0.75 w=0.5 l=0.5
X177 VPWR.t1913 XThR.Tn[12].t17 XA.XIR[13].XIC[10].icell.PUM VPWR.t1912 sky130_fd_pr__pfet_01v8 ad=0.135 pd=1.54 as=0.0675 ps=0.77 w=0.5 l=0.15
X178 XA.XIR[7].XIC[3].icell.PUM XThC.Tn[3].t13 XA.XIR[7].XIC[3].icell.Ien VPWR.t767 sky130_fd_pr__pfet_01v8 ad=0.0675 pd=0.77 as=0.0725 ps=0.79 w=0.5 l=0.15
X179 XA.XIR[2].XIC_15.icell.PUM VPWR.t352 XA.XIR[2].XIC_15.icell.Ien VPWR.t353 sky130_fd_pr__pfet_01v8 ad=0.0675 pd=0.77 as=0.0725 ps=0.79 w=0.5 l=0.15
X180 XA.XIR[2].XIC[13].icell.PDM XThR.Tn[2].t15 XA.XIR[2].XIC[13].icell.Ien VGND.t810 sky130_fd_pr__nfet_01v8 ad=0.0725 pd=0.79 as=0.2304 ps=2.18 w=0.5 l=0.15
X181 VPWR.t720 XThR.Tn[9].t15 XA.XIR[10].XIC[12].icell.PUM VPWR.t719 sky130_fd_pr__pfet_01v8 ad=0.135 pd=1.54 as=0.0675 ps=0.77 w=0.5 l=0.15
X182 VPWR.t842 XThR.Tn[8].t19 XA.XIR[9].XIC[0].icell.PUM VPWR.t841 sky130_fd_pr__pfet_01v8 ad=0.135 pd=1.54 as=0.0675 ps=0.77 w=0.5 l=0.15
X183 VGND.t2063 Vbias.t21 XA.XIR[4].XIC[6].icell.SM VGND.t2062 sky130_fd_pr__nfet_g5v0d10v5 ad=0.175 pd=1.7 as=0.0625 ps=0.75 w=0.5 l=0.5
X184 XA.XIR[1].XIC_dummy_left.icell.PDM VPWR.t1933 VGND.t1519 VGND.t1518 sky130_fd_pr__nfet_01v8 ad=0.1312 pd=1.54 as=0.0725 ps=0.79 w=0.5 l=0.15
X185 VPWR.t351 VPWR.t349 XA.XIR[6].XIC_dummy_left.icell.PUM VPWR.t350 sky130_fd_pr__pfet_01v8 ad=0.135 pd=1.54 as=0.0675 ps=0.77 w=0.5 l=0.15
X186 VPWR.t426 XThC.XTBN.Y.t17 XThC.Tn[10].t0 VPWR.t425 sky130_fd_pr__pfet_01v8_hvt ad=0.135 pd=1.27 as=0.135 ps=1.27 w=1 l=0.15
X187 VGND.t2385 XThR.XTBN.Y XThR.Tn[3].t8 VGND.t2348 sky130_fd_pr__nfet_01v8 ad=0.169 pd=1.82 as=0.08775 ps=0.92 w=0.65 l=0.15
X188 XA.XIR[3].XIC[11].icell.PDM XThR.Tn[2].t16 VGND.t809 VGND.t808 sky130_fd_pr__nfet_01v8 ad=0.1312 pd=1.54 as=0.0725 ps=0.79 w=0.5 l=0.15
X189 XA.XIR[6].XIC[8].icell.Ien XThR.Tn[6].t17 VPWR.t1582 VPWR.t1581 sky130_fd_pr__pfet_01v8 ad=0.0725 pd=0.79 as=0.15 ps=1.6 w=0.5 l=0.15
X190 XThR.Tn[0].t5 XThR.XTBN.Y a_n1049_8581# VPWR.t1817 sky130_fd_pr__pfet_01v8_hvt ad=0.135 pd=1.27 as=0.135 ps=1.27 w=1 l=0.15
X191 XA.XIR[13].XIC[12].icell.Ien XThR.Tn[13].t14 VPWR.t405 VPWR.t404 sky130_fd_pr__pfet_01v8 ad=0.0725 pd=0.79 as=0.15 ps=1.6 w=0.5 l=0.15
X192 XA.XIR[13].XIC[7].icell.SM XA.XIR[13].XIC[7].icell.Ien Iout.t44 VGND.t239 sky130_fd_pr__nfet_g5v0d10v5 ad=0.0625 pd=0.75 as=0.175 ps=1.7 w=0.5 l=0.5
X193 VPWR.t1133 VGND.t2688 XA.XIR[0].XIC[8].icell.PUM VPWR.t1132 sky130_fd_pr__pfet_01v8 ad=0.135 pd=1.54 as=0.0675 ps=0.77 w=0.5 l=0.15
X194 XA.XIR[10].XIC[14].icell.PDM XThR.Tn[10].t13 XA.XIR[10].XIC[14].icell.Ien VGND.t657 sky130_fd_pr__nfet_01v8 ad=0.0725 pd=0.79 as=0.2304 ps=2.18 w=0.5 l=0.15
X195 XA.XIR[10].XIC[8].icell.PDM XThR.Tn[10].t14 XA.XIR[10].XIC[8].icell.Ien VGND.t1807 sky130_fd_pr__nfet_01v8 ad=0.0725 pd=0.79 as=0.2304 ps=2.18 w=0.5 l=0.15
X196 XThC.Tn[12].t2 XThC.XTB5.Y VPWR.t502 VPWR.t496 sky130_fd_pr__pfet_01v8_hvt ad=0.135 pd=1.27 as=0.135 ps=1.27 w=1 l=0.15
X197 XA.XIR[1].XIC[11].icell.PUM XThC.Tn[11].t14 XA.XIR[1].XIC[11].icell.Ien VPWR.t1824 sky130_fd_pr__pfet_01v8 ad=0.0675 pd=0.77 as=0.0725 ps=0.79 w=0.5 l=0.15
X198 XThR.Tn[11].t7 XThR.XTBN.Y VPWR.t1816 VPWR.t1805 sky130_fd_pr__pfet_01v8_hvt ad=0.135 pd=1.27 as=0.135 ps=1.27 w=1 l=0.15
X199 XA.XIR[0].XIC[7].icell.Ien XThR.Tn[0].t14 VPWR.t970 VPWR.t969 sky130_fd_pr__pfet_01v8 ad=0.0725 pd=0.79 as=0.15 ps=1.6 w=0.5 l=0.15
X200 XA.XIR[3].XIC[2].icell.PDM XThR.Tn[2].t17 VGND.t606 VGND.t605 sky130_fd_pr__nfet_01v8 ad=0.1312 pd=1.54 as=0.0725 ps=0.79 w=0.5 l=0.15
X201 XA.XIR[8].XIC[9].icell.PUM XThC.Tn[9].t14 XA.XIR[8].XIC[9].icell.Ien VPWR.t466 sky130_fd_pr__pfet_01v8 ad=0.0675 pd=0.77 as=0.0725 ps=0.79 w=0.5 l=0.15
X202 XA.XIR[9].XIC[7].icell.PDM XThR.Tn[8].t20 VGND.t601 VGND.t600 sky130_fd_pr__nfet_01v8 ad=0.1312 pd=1.54 as=0.0725 ps=0.79 w=0.5 l=0.15
X203 XA.XIR[1].XIC_dummy_left.icell.SM XA.XIR[1].XIC_dummy_left.icell.Ien XA.XIR[1].XIC_dummy_left.icell.Iout VGND.t240 sky130_fd_pr__nfet_g5v0d10v5 ad=0.0625 pd=0.75 as=0.175 ps=1.7 w=0.5 l=0.5
X204 XA.XIR[6].XIC[3].icell.PDM XThR.Tn[5].t15 VGND.t693 VGND.t692 sky130_fd_pr__nfet_01v8 ad=0.1312 pd=1.54 as=0.0725 ps=0.79 w=0.5 l=0.15
X205 VGND.t2409 XThC.Tn[11].t15 XA.XIR[5].XIC[11].icell.PDM VGND.t2408 sky130_fd_pr__nfet_01v8 ad=0.0725 pd=0.79 as=0.0725 ps=0.79 w=0.5 l=0.15
X206 XA.XIR[11].XIC[10].icell.PUM XThC.Tn[10].t14 XA.XIR[11].XIC[10].icell.Ien VPWR.t1001 sky130_fd_pr__pfet_01v8 ad=0.0675 pd=0.77 as=0.0725 ps=0.79 w=0.5 l=0.15
X207 XThR.Tn[2].t7 XThR.XTBN.Y VGND.t2384 VGND.t2337 sky130_fd_pr__nfet_01v8 ad=0.08775 pd=0.92 as=0.08775 ps=0.92 w=0.65 l=0.15