* NGSPICE file created from csdac255_parax.ext - technology: sky130A

.subckt csdac255_parax Iout VPWR VGND Vbias data[0] data[1] data[2] data[3] data[4]
+ data[5] data[6] data[7] bias[0] bias[1] bias[2]
X0 XA.XIR[2].XIC_dummy_right.icell.SM XA.XIR[2].XIC_dummy_right.icell.Ien XA.XIR[2].XIC_dummy_right.icell.Iout VGND.t1612 sky130_fd_pr__nfet_g5v0d10v5 ad=0.0625 pd=0.75 as=0.175 ps=1.7 w=0.5 l=0.5
X1 VPWR.t1192 XThR.Tn[2].t12 XA.XIR[3].XIC[8].icell.PUM VPWR.t1191 sky130_fd_pr__pfet_01v8 ad=0.135 pd=1.54 as=0.0675 ps=0.77 w=0.5 l=0.15
X2 XA.XIR[12].XIC[10].icell.SM XA.XIR[12].XIC[10].icell.Ien Iout.t210 VGND.t1613 sky130_fd_pr__nfet_g5v0d10v5 ad=0.0625 pd=0.75 as=0.175 ps=1.7 w=0.5 l=0.5
X3 XA.XIR[11].XIC_dummy_right.icell.Ien VPWR.t946 VPWR.t948 VPWR.t947 sky130_fd_pr__pfet_01v8 ad=0.0725 pd=0.79 as=0.15 ps=1.6 w=0.5 l=0.15
X4 VGND.t1430 XA.Cn[10].t12 XA.XIR[4].XIC[10].icell.PDM VGND.t1429 sky130_fd_pr__nfet_01v8 ad=0.0725 pd=0.79 as=0.0725 ps=0.79 w=0.5 l=0.15
X5 VGND.t2460 XThR.XTBN.Y a_n997_2667# VGND.t2422 sky130_fd_pr__nfet_01v8 ad=0.08775 pd=0.92 as=0.08775 ps=0.92 w=0.65 l=0.15
X6 VPWR.t953 XThR.Tn[6].t12 XA.XIR[7].XIC[8].icell.PUM VPWR.t952 sky130_fd_pr__pfet_01v8 ad=0.135 pd=1.54 as=0.0675 ps=0.77 w=0.5 l=0.15
X7 XA.XIR[14].XIC[5].icell.Ien XThR.Tn[14].t12 VPWR.t203 VPWR.t202 sky130_fd_pr__pfet_01v8 ad=0.0725 pd=0.79 as=0.15 ps=1.6 w=0.5 l=0.15
X8 XA.XIR[12].XIC[6].icell.PDM XThR.Tn[12].t12 XA.XIR[12].XIC[6].icell.Ien VGND.t296 sky130_fd_pr__nfet_01v8 ad=0.0725 pd=0.79 as=0.2304 ps=2.18 w=0.5 l=0.15
X9 XA.Cn[6].t7 thermo15c_0.XTBN.Y.t4 VGND.t1341 VGND.t1340 sky130_fd_pr__nfet_01v8 ad=0.08775 pd=0.92 as=0.169 ps=1.82 w=0.65 l=0.15
X10 XA.XIR[5].XIC_dummy_left.icell.PDM VPWR.t1926 VGND.t2169 VGND.t2168 sky130_fd_pr__nfet_01v8 ad=0.1312 pd=1.54 as=0.0725 ps=0.79 w=0.5 l=0.15
X11 XA.XIR[10].XIC[2].icell.PDM XThR.Tn[9].t12 VGND.t444 VGND.t443 sky130_fd_pr__nfet_01v8 ad=0.1312 pd=1.54 as=0.0725 ps=0.79 w=0.5 l=0.15
X12 VGND.t1342 thermo15c_0.XTBN.Y.t5 XA.Cn[5].t11 VGND.t440 sky130_fd_pr__nfet_01v8 ad=0.08775 pd=0.92 as=0.08775 ps=0.92 w=0.65 l=0.15
X13 XA.XIR[15].XIC[9].icell.PUM XA.Cn[9].t12 XA.XIR[15].XIC[9].icell.Ien VPWR.t1246 sky130_fd_pr__pfet_01v8 ad=0.0675 pd=0.77 as=0.0725 ps=0.79 w=0.5 l=0.15
X14 XA.XIR[9].XIC[0].icell.SM XA.XIR[9].XIC[0].icell.Ien Iout.t216 VGND.t1783 sky130_fd_pr__nfet_g5v0d10v5 ad=0.0625 pd=0.75 as=0.175 ps=1.7 w=0.5 l=0.5
X15 XA.XIR[13].XIC[3].icell.PDM XThR.Tn[12].t13 VGND.t298 VGND.t297 sky130_fd_pr__nfet_01v8 ad=0.1312 pd=1.54 as=0.0725 ps=0.79 w=0.5 l=0.15
X16 VGND.t2462 XA.Cn[11].t12 XA.XIR[12].XIC[11].icell.PDM VGND.t2461 sky130_fd_pr__nfet_01v8 ad=0.0725 pd=0.79 as=0.0725 ps=0.79 w=0.5 l=0.15
X17 XA.XIR[12].XIC[1].icell.SM XA.XIR[12].XIC[1].icell.Ien Iout.t167 VGND.t1366 sky130_fd_pr__nfet_g5v0d10v5 ad=0.0625 pd=0.75 as=0.175 ps=1.7 w=0.5 l=0.5
X18 XA.XIR[8].XIC[12].icell.SM XA.XIR[8].XIC[12].icell.Ien Iout.t221 VGND.t1873 sky130_fd_pr__nfet_g5v0d10v5 ad=0.0625 pd=0.75 as=0.175 ps=1.7 w=0.5 l=0.5
X19 XA.Cn[12].t3 thermo15c_0.XTB5.Y VPWR.t343 VPWR.t23 sky130_fd_pr__pfet_01v8_hvt ad=0.135 pd=1.27 as=0.135 ps=1.27 w=1 l=0.15
X20 XA.XIR[8].XIC_15.icell.PDM VPWR.t1927 VGND.t2171 VGND.t2170 sky130_fd_pr__nfet_01v8 ad=0.1312 pd=1.54 as=0.0725 ps=0.79 w=0.5 l=0.15
X21 XA.XIR[7].XIC[13].icell.SM XA.XIR[7].XIC[13].icell.Ien Iout.t169 VGND.t1368 sky130_fd_pr__nfet_g5v0d10v5 ad=0.0625 pd=0.75 as=0.175 ps=1.7 w=0.5 l=0.5
X22 XA.XIR[14].XIC[13].icell.PUM XA.Cn[13].t12 XA.XIR[14].XIC[13].icell.Ien VPWR.t1326 sky130_fd_pr__pfet_01v8 ad=0.0675 pd=0.77 as=0.0725 ps=0.79 w=0.5 l=0.15
X23 a_2979_9615# thermo15c_0.XTBN.Y.t6 XA.Cn[0].t6 VPWR.t1325 sky130_fd_pr__pfet_01v8_hvt ad=0.135 pd=1.27 as=0.135 ps=1.27 w=1 l=0.15
X24 XA.XIR[11].XIC_dummy_left.icell.PUM VPWR.t944 XA.XIR[11].XIC_dummy_left.icell.Ien VPWR.t945 sky130_fd_pr__pfet_01v8 ad=0.0675 pd=0.77 as=0.0725 ps=0.79 w=0.5 l=0.15
X25 XA.XIR[10].XIC[14].icell.SM XA.XIR[10].XIC[14].icell.Ien Iout.t207 VGND.t1520 sky130_fd_pr__nfet_g5v0d10v5 ad=0.0625 pd=0.75 as=0.175 ps=1.7 w=0.5 l=0.5
X26 a_4861_9615# thermo15c_0.XTB4.Y.t2 VPWR.t1300 VPWR.t154 sky130_fd_pr__pfet_01v8_hvt ad=0.135 pd=1.27 as=0.135 ps=1.27 w=1 l=0.15
X27 a_5949_9615# thermo15c_0.XTBN.Y.t7 XA.Cn[5].t7 VPWR.t1029 sky130_fd_pr__pfet_01v8_hvt ad=0.135 pd=1.27 as=0.135 ps=1.27 w=1 l=0.15
X28 XA.XIR[6].XIC[10].icell.PDM XThR.Tn[6].t13 XA.XIR[6].XIC[10].icell.Ien VGND.t776 sky130_fd_pr__nfet_01v8 ad=0.0725 pd=0.79 as=0.2304 ps=2.18 w=0.5 l=0.15
X29 XA.XIR[0].XIC[4].icell.PDM VGND.t1761 VGND.t1763 VGND.t1762 sky130_fd_pr__nfet_01v8 ad=0.1312 pd=1.54 as=0.0725 ps=0.79 w=0.5 l=0.15
X30 XA.XIR[4].XIC[12].icell.PDM XThR.Tn[3].t12 VGND.t915 VGND.t914 sky130_fd_pr__nfet_01v8 ad=0.1312 pd=1.54 as=0.0725 ps=0.79 w=0.5 l=0.15
X31 XThR.Tn[5].t7 XThR.XTBN.Y a_n1049_5611# VPWR.t1771 sky130_fd_pr__pfet_01v8_hvt ad=0.135 pd=1.27 as=0.135 ps=1.27 w=1 l=0.15
X32 XA.Cn[4].t3 thermo15c_0.XTB5.Y VGND.t416 VGND.t68 sky130_fd_pr__nfet_01v8 ad=0.08775 pd=0.92 as=0.08775 ps=0.92 w=0.65 l=0.15
X33 VGND.t2255 thermo15c_0.XTBN.Y.t8 XA.Cn[2].t5 VGND.t872 sky130_fd_pr__nfet_01v8 ad=0.08775 pd=0.92 as=0.08775 ps=0.92 w=0.65 l=0.15
X34 XThR.XTB2.Y XThR.XTB6.A VPWR.t1662 VPWR.t1388 sky130_fd_pr__pfet_01v8_hvt ad=0.135 pd=1.27 as=0.26 ps=2.52 w=1 l=0.15
X35 XA.XIR[7].XIC[13].icell.PDM XThR.Tn[6].t14 VGND.t778 VGND.t777 sky130_fd_pr__nfet_01v8 ad=0.1312 pd=1.54 as=0.0725 ps=0.79 w=0.5 l=0.15
X36 XA.XIR[6].XIC[11].icell.SM XA.XIR[6].XIC[11].icell.Ien Iout.t168 VGND.t1367 sky130_fd_pr__nfet_g5v0d10v5 ad=0.0625 pd=0.75 as=0.175 ps=1.7 w=0.5 l=0.5
X37 VGND.t830 XA.Cn[2].t12 XA.XIR[12].XIC[2].icell.PDM VGND.t829 sky130_fd_pr__nfet_01v8 ad=0.0725 pd=0.79 as=0.0725 ps=0.79 w=0.5 l=0.15
X38 VPWR.t943 VPWR.t941 XA.XIR[10].XIC_dummy_left.icell.PUM VPWR.t942 sky130_fd_pr__pfet_01v8 ad=0.135 pd=1.54 as=0.0675 ps=0.77 w=0.5 l=0.15
X39 VGND.t2173 VPWR.t1928 XA.XIR[7].XIC_dummy_left.icell.PDM VGND.t2172 sky130_fd_pr__nfet_01v8 ad=0.0725 pd=0.79 as=0.0725 ps=0.79 w=0.5 l=0.15
X40 VPWR.t1061 XThR.Tn[3].t13 XA.XIR[4].XIC[11].icell.PUM VPWR.t1060 sky130_fd_pr__pfet_01v8 ad=0.135 pd=1.54 as=0.0675 ps=0.77 w=0.5 l=0.15
X41 VGND.t1272 Vbias.t6 XA.XIR[14].XIC[11].icell.SM VGND.t1271 sky130_fd_pr__nfet_g5v0d10v5 ad=0.175 pd=1.7 as=0.0625 ps=0.75 w=0.5 l=0.5
X42 XA.XIR[2].XIC[1].icell.PUM XA.Cn[1].t12 XA.XIR[2].XIC[1].icell.Ien VPWR.t99 sky130_fd_pr__pfet_01v8 ad=0.0675 pd=0.77 as=0.0725 ps=0.79 w=0.5 l=0.15
X43 VGND.t2013 XA.Cn[3].t12 XA.XIR[15].XIC[3].icell.PDM VGND.t2012 sky130_fd_pr__nfet_01v8 ad=0.0725 pd=0.79 as=0.0725 ps=0.79 w=0.5 l=0.15
X44 VGND.t2175 VPWR.t1929 XA.XIR[10].XIC_15.icell.PDM VGND.t2174 sky130_fd_pr__nfet_01v8 ad=0.0725 pd=0.79 as=0.0725 ps=0.79 w=0.5 l=0.15
X45 VPWR.t1849 XThR.Tn[10].t12 XA.XIR[11].XIC[9].icell.PUM VPWR.t1848 sky130_fd_pr__pfet_01v8 ad=0.135 pd=1.54 as=0.0675 ps=0.77 w=0.5 l=0.15
X46 XA.XIR[0].XIC[14].icell.PUM XA.Cn[14].t12 XA.XIR[0].XIC[14].icell.Ien VPWR.t1626 sky130_fd_pr__pfet_01v8 ad=0.0675 pd=0.77 as=0.0725 ps=0.79 w=0.5 l=0.15
X47 XA.XIR[13].XIC_dummy_left.icell.Ien VPWR.t938 VPWR.t940 VPWR.t939 sky130_fd_pr__pfet_01v8 ad=0.0725 pd=0.79 as=0.15 ps=1.6 w=0.5 l=0.15
X48 a_7651_9569# thermo15c_0.XTB1.Y.t3 XA.Cn[8].t7 VGND.t66 sky130_fd_pr__nfet_01v8 ad=0.08775 pd=0.92 as=0.08775 ps=0.92 w=0.65 l=0.15
X49 VGND.t1274 Vbias.t7 XA.XIR[2].XIC[5].icell.SM VGND.t1273 sky130_fd_pr__nfet_g5v0d10v5 ad=0.175 pd=1.7 as=0.0625 ps=0.75 w=0.5 l=0.5
X50 XA.XIR[1].XIC[6].icell.Ien XThR.Tn[1].t12 VPWR.t315 VPWR.t314 sky130_fd_pr__pfet_01v8 ad=0.0725 pd=0.79 as=0.15 ps=1.6 w=0.5 l=0.15
X51 a_10051_9569# thermo15c_0.XTB6.Y XA.Cn[13].t7 VGND.t64 sky130_fd_pr__nfet_01v8 ad=0.169 pd=1.82 as=0.08775 ps=0.92 w=0.65 l=0.15
X52 VGND.t96 XA.Cn[4].t12 XA.XIR[2].XIC[4].icell.PDM VGND.t95 sky130_fd_pr__nfet_01v8 ad=0.0725 pd=0.79 as=0.0725 ps=0.79 w=0.5 l=0.15
X53 thermo15c_0.XTB5.Y thermo15c_0.XTB7.B VGND.t1104 VGND.t68 sky130_fd_pr__nfet_01v8 ad=0.08775 pd=0.92 as=0.169 ps=1.82 w=0.65 l=0.15
X54 XA.Cn[7].t3 thermo15c_0.XTBN.Y.t9 VPWR.t1758 VPWR.t1757 sky130_fd_pr__pfet_01v8_hvt ad=0.135 pd=1.27 as=0.26 ps=2.52 w=1 l=0.15
X55 XA.XIR[10].XIC[6].icell.PDM XThR.Tn[9].t13 VGND.t446 VGND.t445 sky130_fd_pr__nfet_01v8 ad=0.1312 pd=1.54 as=0.0725 ps=0.79 w=0.5 l=0.15
X56 VGND.t893 XThR.XTB7.Y XThR.Tn[6].t3 VGND.t892 sky130_fd_pr__nfet_01v8 ad=0.08775 pd=0.92 as=0.08775 ps=0.92 w=0.65 l=0.15
X57 XA.XIR[4].XIC[7].icell.Ien XThR.Tn[4].t12 VPWR.t1315 VPWR.t1314 sky130_fd_pr__pfet_01v8 ad=0.0725 pd=0.79 as=0.15 ps=1.6 w=0.5 l=0.15
X58 VPWR.t1835 XThR.XTBN.Y XThR.Tn[9].t11 VPWR.t1822 sky130_fd_pr__pfet_01v8_hvt ad=0.135 pd=1.27 as=0.135 ps=1.27 w=1 l=0.15
X59 XThR.XTB7.Y XThR.XTB7.A VGND.t1455 VGND.t1454 sky130_fd_pr__nfet_01v8 ad=0.08775 pd=0.92 as=0.169 ps=1.82 w=0.65 l=0.15
X60 XA.XIR[3].XIC[8].icell.Ien XThR.Tn[3].t14 VPWR.t1409 VPWR.t1408 sky130_fd_pr__pfet_01v8 ad=0.0725 pd=0.79 as=0.15 ps=1.6 w=0.5 l=0.15
X61 VPWR.t1411 XThR.Tn[3].t15 XA.XIR[4].XIC[2].icell.PUM VPWR.t1410 sky130_fd_pr__pfet_01v8 ad=0.135 pd=1.54 as=0.0675 ps=0.77 w=0.5 l=0.15
X62 XA.XIR[13].XIC[7].icell.PDM XThR.Tn[12].t14 VGND.t300 VGND.t299 sky130_fd_pr__nfet_01v8 ad=0.1312 pd=1.54 as=0.0725 ps=0.79 w=0.5 l=0.15
X63 XA.XIR[1].XIC[9].icell.PDM XThR.Tn[1].t13 XA.XIR[1].XIC[9].icell.Ien VGND.t1809 sky130_fd_pr__nfet_01v8 ad=0.0725 pd=0.79 as=0.2304 ps=2.18 w=0.5 l=0.15
X64 VPWR.t1190 XThR.Tn[2].t13 XA.XIR[3].XIC[3].icell.PUM VPWR.t1189 sky130_fd_pr__pfet_01v8 ad=0.135 pd=1.54 as=0.0675 ps=0.77 w=0.5 l=0.15
X65 XA.XIR[5].XIC_dummy_left.icell.SM XA.XIR[5].XIC_dummy_left.icell.Ien XA.XIR[5].XIC_dummy_left.icell.Iout VGND.t1117 sky130_fd_pr__nfet_g5v0d10v5 ad=0.0625 pd=0.75 as=0.175 ps=1.7 w=0.5 l=0.5
X66 VPWR.t221 XThR.Tn[6].t15 XA.XIR[7].XIC[3].icell.PUM VPWR.t220 sky130_fd_pr__pfet_01v8 ad=0.135 pd=1.54 as=0.0675 ps=0.77 w=0.5 l=0.15
X67 VPWR.t937 VPWR.t935 XA.XIR[2].XIC_15.icell.PUM VPWR.t936 sky130_fd_pr__pfet_01v8 ad=0.135 pd=1.54 as=0.0675 ps=0.77 w=0.5 l=0.15
X68 a_6243_9615# thermo15c_0.XTB7.Y VPWR.t1354 VPWR.t302 sky130_fd_pr__pfet_01v8_hvt ad=0.28 pd=2.56 as=0.135 ps=1.27 w=1 l=0.15
X69 XA.XIR[11].XIC[14].icell.PDM XThR.Tn[11].t12 XA.XIR[11].XIC[14].icell.Ien VGND.t1820 sky130_fd_pr__nfet_01v8 ad=0.0725 pd=0.79 as=0.2304 ps=2.18 w=0.5 l=0.15
X70 XA.XIR[11].XIC[8].icell.PDM XThR.Tn[11].t13 XA.XIR[11].XIC[8].icell.Ien VGND.t1821 sky130_fd_pr__nfet_01v8 ad=0.0725 pd=0.79 as=0.2304 ps=2.18 w=0.5 l=0.15
X71 XA.XIR[4].XIC[10].icell.PDM XThR.Tn[3].t16 VGND.t1509 VGND.t1508 sky130_fd_pr__nfet_01v8 ad=0.1312 pd=1.54 as=0.0725 ps=0.79 w=0.5 l=0.15
X72 XThR.Tn[7].t3 XThR.XTBN.Y VPWR.t1834 VPWR.t1833 sky130_fd_pr__pfet_01v8_hvt ad=0.135 pd=1.27 as=0.26 ps=2.52 w=1 l=0.15
X73 XA.XIR[1].XIC[12].icell.PDM XThR.Tn[0].t12 VGND.t845 VGND.t844 sky130_fd_pr__nfet_01v8 ad=0.1312 pd=1.54 as=0.0725 ps=0.79 w=0.5 l=0.15
X74 a_8963_9569# thermo15c_0.XTBN.Y.t10 VGND.t2256 VGND.t6 sky130_fd_pr__nfet_01v8 ad=0.08775 pd=0.92 as=0.08775 ps=0.92 w=0.65 l=0.15
X75 VGND.t1276 Vbias.t8 XA.XIR[12].XIC[7].icell.SM VGND.t1275 sky130_fd_pr__nfet_g5v0d10v5 ad=0.175 pd=1.7 as=0.0625 ps=0.75 w=0.5 l=0.5
X76 VGND.t500 XA.Cn[6].t12 XA.XIR[12].XIC[6].icell.PDM VGND.t499 sky130_fd_pr__nfet_01v8 ad=0.0725 pd=0.79 as=0.0725 ps=0.79 w=0.5 l=0.15
X77 XA.XIR[6].XIC[9].icell.SM XA.XIR[6].XIC[9].icell.Ien Iout.t70 VGND.t550 sky130_fd_pr__nfet_g5v0d10v5 ad=0.0625 pd=0.75 as=0.175 ps=1.7 w=0.5 l=0.5
X78 XA.XIR[2].XIC_dummy_left.icell.SM XA.XIR[2].XIC_dummy_left.icell.Ien XA.XIR[2].XIC_dummy_left.icell.Iout VGND.t1282 sky130_fd_pr__nfet_g5v0d10v5 ad=0.0625 pd=0.75 as=0.175 ps=1.7 w=0.5 l=0.5
X79 XA.XIR[3].XIC[11].icell.SM XA.XIR[3].XIC[11].icell.Ien Iout.t139 VGND.t1084 sky130_fd_pr__nfet_g5v0d10v5 ad=0.0625 pd=0.75 as=0.175 ps=1.7 w=0.5 l=0.5
X80 VGND.t2177 VPWR.t1930 XA.XIR[4].XIC_dummy_left.icell.PDM VGND.t2176 sky130_fd_pr__nfet_01v8 ad=0.0725 pd=0.79 as=0.0725 ps=0.79 w=0.5 l=0.15
X81 VGND.t2459 XThR.XTBN.Y XThR.Tn[5].t11 VGND.t2442 sky130_fd_pr__nfet_01v8 ad=0.169 pd=1.82 as=0.08775 ps=0.92 w=0.65 l=0.15
X82 VGND.t1278 Vbias.t9 XA.XIR[15].XIC[8].icell.SM VGND.t1277 sky130_fd_pr__nfet_g5v0d10v5 ad=0.175 pd=1.7 as=0.0625 ps=0.75 w=0.5 l=0.5
X83 VGND.t1280 Vbias.t10 XA.XIR[14].XIC[9].icell.SM VGND.t1279 sky130_fd_pr__nfet_g5v0d10v5 ad=0.175 pd=1.7 as=0.0625 ps=0.75 w=0.5 l=0.5
X84 VGND.t1019 XA.Cn[7].t8 XA.XIR[15].XIC[7].icell.PDM VGND.t1018 sky130_fd_pr__nfet_01v8 ad=0.0725 pd=0.79 as=0.0725 ps=0.79 w=0.5 l=0.15
X85 VGND.t2464 XA.Cn[11].t13 XA.XIR[6].XIC[11].icell.PDM VGND.t2463 sky130_fd_pr__nfet_01v8 ad=0.0725 pd=0.79 as=0.0725 ps=0.79 w=0.5 l=0.15
X86 VGND.t204 XA.Cn[1].t13 XA.XIR[3].XIC[1].icell.PDM VGND.t203 sky130_fd_pr__nfet_01v8 ad=0.0725 pd=0.79 as=0.0725 ps=0.79 w=0.5 l=0.15
X87 XA.XIR[4].XIC[11].icell.Ien XThR.Tn[4].t13 VPWR.t1317 VPWR.t1316 sky130_fd_pr__pfet_01v8 ad=0.0725 pd=0.79 as=0.15 ps=1.6 w=0.5 l=0.15
X88 VPWR.t552 XThR.XTB6.Y a_n1049_5611# VPWR.t551 sky130_fd_pr__pfet_01v8_hvt ad=0.135 pd=1.27 as=0.28 ps=2.56 w=1 l=0.15
X89 XA.XIR[14].XIC[6].icell.PUM XA.Cn[6].t13 XA.XIR[14].XIC[6].icell.Ien VPWR.t422 sky130_fd_pr__pfet_01v8 ad=0.0675 pd=0.77 as=0.0725 ps=0.79 w=0.5 l=0.15
X90 VGND.t239 Vbias.t11 XA.XIR[9].XIC[7].icell.SM VGND.t238 sky130_fd_pr__nfet_g5v0d10v5 ad=0.175 pd=1.7 as=0.0625 ps=0.75 w=0.5 l=0.5
X91 VGND.t832 XA.Cn[2].t13 XA.XIR[6].XIC[2].icell.PDM VGND.t831 sky130_fd_pr__nfet_01v8 ad=0.0725 pd=0.79 as=0.0725 ps=0.79 w=0.5 l=0.15
X92 XA.XIR[11].XIC[9].icell.Ien XThR.Tn[11].t14 VPWR.t1535 VPWR.t1534 sky130_fd_pr__pfet_01v8 ad=0.0725 pd=0.79 as=0.15 ps=1.6 w=0.5 l=0.15
X93 XA.XIR[6].XIC_dummy_left.icell.PDM VPWR.t1931 XA.XIR[6].XIC_dummy_left.icell.Ien VGND.t2178 sky130_fd_pr__nfet_01v8 ad=0.0725 pd=0.79 as=0.2304 ps=2.18 w=0.5 l=0.15
X94 VGND.t1270 Vbias.t3 Vbias.t4 VGND.t1269 sky130_fd_pr__nfet_g5v0d10v5 ad=0.725 pd=5.58 as=0.725 ps=5.58 w=2.5 l=1
X95 a_n1049_7787# XThR.XTB2.Y VPWR.t1670 VPWR.t1092 sky130_fd_pr__pfet_01v8_hvt ad=0.135 pd=1.27 as=0.135 ps=1.27 w=1 l=0.15
X96 VGND.t1172 XA.Cn[9].t13 XA.XIR[14].XIC[9].icell.PDM VGND.t1171 sky130_fd_pr__nfet_01v8 ad=0.0725 pd=0.79 as=0.0725 ps=0.79 w=0.5 l=0.15
X97 XA.XIR[8].XIC[11].icell.PDM XThR.Tn[8].t12 XA.XIR[8].XIC[11].icell.Ien VGND.t1147 sky130_fd_pr__nfet_01v8 ad=0.0725 pd=0.79 as=0.2304 ps=2.18 w=0.5 l=0.15
X98 VGND.t241 Vbias.t12 XA.XIR[2].XIC[0].icell.SM VGND.t240 sky130_fd_pr__nfet_g5v0d10v5 ad=0.175 pd=1.7 as=0.0625 ps=0.75 w=0.5 l=0.5
X99 XA.XIR[1].XIC[1].icell.Ien XThR.Tn[1].t14 VPWR.t1531 VPWR.t1530 sky130_fd_pr__pfet_01v8 ad=0.0725 pd=0.79 as=0.15 ps=1.6 w=0.5 l=0.15
X100 XA.XIR[13].XIC[4].icell.PUM XA.Cn[4].t13 XA.XIR[13].XIC[4].icell.Ien VPWR.t30 sky130_fd_pr__pfet_01v8 ad=0.0675 pd=0.77 as=0.0725 ps=0.79 w=0.5 l=0.15
X101 XA.XIR[8].XIC_dummy_right.icell.PUM VPWR.t933 XA.XIR[8].XIC_dummy_right.icell.Ien VPWR.t934 sky130_fd_pr__pfet_01v8 ad=0.0675 pd=0.77 as=0.0725 ps=0.79 w=0.5 l=0.15
X102 VGND.t243 Vbias.t13 XA.XIR[0].XIC[13].icell.SM VGND.t242 sky130_fd_pr__nfet_g5v0d10v5 ad=0.175 pd=1.7 as=0.0625 ps=0.75 w=0.5 l=0.5
X103 XA.XIR[1].XIC[10].icell.PDM XThR.Tn[0].t13 VGND.t847 VGND.t846 sky130_fd_pr__nfet_01v8 ad=0.1312 pd=1.54 as=0.0725 ps=0.79 w=0.5 l=0.15
X104 XA.XIR[4].XIC[2].icell.Ien XThR.Tn[4].t14 VPWR.t1319 VPWR.t1318 sky130_fd_pr__pfet_01v8 ad=0.0725 pd=0.79 as=0.15 ps=1.6 w=0.5 l=0.15
X105 XA.XIR[9].XIC[14].icell.PDM XThR.Tn[8].t13 VGND.t1149 VGND.t1148 sky130_fd_pr__nfet_01v8 ad=0.1312 pd=1.54 as=0.0725 ps=0.79 w=0.5 l=0.15
X106 XA.XIR[9].XIC[8].icell.PDM XThR.Tn[8].t14 VGND.t1151 VGND.t1150 sky130_fd_pr__nfet_01v8 ad=0.1312 pd=1.54 as=0.0725 ps=0.79 w=0.5 l=0.15
X107 XA.XIR[3].XIC[3].icell.Ien XThR.Tn[3].t17 VPWR.t1413 VPWR.t1412 sky130_fd_pr__pfet_01v8 ad=0.0725 pd=0.79 as=0.15 ps=1.6 w=0.5 l=0.15
X108 VGND.t2640 XA.Cn[12].t12 XA.XIR[0].XIC[12].icell.PDM VGND.t2639 sky130_fd_pr__nfet_01v8 ad=0.0725 pd=0.79 as=0.0725 ps=0.79 w=0.5 l=0.15
X109 VPWR.t1013 thermo15c_0.XTB3.Y.t3 a_4067_9615# VPWR.t417 sky130_fd_pr__pfet_01v8_hvt ad=0.135 pd=1.27 as=0.135 ps=1.27 w=1 l=0.15
X110 XA.XIR[1].XIC[4].icell.PDM XThR.Tn[1].t15 XA.XIR[1].XIC[4].icell.Ien VGND.t1810 sky130_fd_pr__nfet_01v8 ad=0.0725 pd=0.79 as=0.2304 ps=2.18 w=0.5 l=0.15
X111 XA.XIR[5].XIC[1].icell.PDM XThR.Tn[5].t12 XA.XIR[5].XIC[1].icell.Ien VGND.t1614 sky130_fd_pr__nfet_01v8 ad=0.0725 pd=0.79 as=0.2304 ps=2.18 w=0.5 l=0.15
X112 VPWR.t456 data[4].t0 a_n1335_4229# VPWR.t455 sky130_fd_pr__pfet_01v8_hvt ad=0.26 pd=2.52 as=0.105 ps=1.21 w=1 l=0.15
X113 XA.XIR[2].XIC_15.icell.Ien XThR.Tn[2].t14 VPWR.t1188 VPWR.t1187 sky130_fd_pr__pfet_01v8 ad=0.0725 pd=0.79 as=0.15 ps=1.6 w=0.5 l=0.15
X114 XA.XIR[3].XIC[9].icell.SM XA.XIR[3].XIC[9].icell.Ien Iout.t120 VGND.t1006 sky130_fd_pr__nfet_g5v0d10v5 ad=0.0625 pd=0.75 as=0.175 ps=1.7 w=0.5 l=0.5
X115 XA.XIR[9].XIC[1].icell.PDM XThR.Tn[9].t14 XA.XIR[9].XIC[1].icell.Ien VGND.t447 sky130_fd_pr__nfet_01v8 ad=0.0725 pd=0.79 as=0.2304 ps=2.18 w=0.5 l=0.15
X116 VGND.t2458 XThR.XTBN.Y XThR.Tn[7].t7 VGND.t2457 sky130_fd_pr__nfet_01v8 ad=0.08775 pd=0.92 as=0.08775 ps=0.92 w=0.65 l=0.15
X117 XA.XIR[4].XIC[5].icell.PDM XThR.Tn[4].t15 XA.XIR[4].XIC[5].icell.Ien VGND.t1329 sky130_fd_pr__nfet_01v8 ad=0.0725 pd=0.79 as=0.2304 ps=2.18 w=0.5 l=0.15
X118 a_n1319_5317# XThR.XTB7.A VPWR.t1391 VPWR.t1390 sky130_fd_pr__pfet_01v8_hvt ad=0.105 pd=1.21 as=0.26 ps=2.52 w=1 l=0.15
X119 XA.XIR[8].XIC[2].icell.PDM XThR.Tn[8].t15 XA.XIR[8].XIC[2].icell.Ien VGND.t902 sky130_fd_pr__nfet_01v8 ad=0.0725 pd=0.79 as=0.2304 ps=2.18 w=0.5 l=0.15
X120 VPWR.t104 XThR.Tn[13].t12 XA.XIR[14].XIC[14].icell.PUM VPWR.t103 sky130_fd_pr__pfet_01v8 ad=0.135 pd=1.54 as=0.0675 ps=0.77 w=0.5 l=0.15
X121 XA.XIR[11].XIC[3].icell.PDM XThR.Tn[11].t15 XA.XIR[11].XIC[3].icell.Ien VGND.t1816 sky130_fd_pr__nfet_01v8 ad=0.0725 pd=0.79 as=0.2304 ps=2.18 w=0.5 l=0.15
X122 XA.XIR[7].XIC[8].icell.PUM XA.Cn[8].t12 XA.XIR[7].XIC[8].icell.Ien VPWR.t465 sky130_fd_pr__pfet_01v8 ad=0.0675 pd=0.77 as=0.0725 ps=0.79 w=0.5 l=0.15
X123 XA.Cn[9].t7 thermo15c_0.XTB2.Y VPWR.t1600 VPWR.t21 sky130_fd_pr__pfet_01v8_hvt ad=0.135 pd=1.27 as=0.135 ps=1.27 w=1 l=0.15
X124 XA.XIR[15].XIC[4].icell.Ien VPWR.t930 VPWR.t932 VPWR.t931 sky130_fd_pr__pfet_01v8 ad=0.0725 pd=0.79 as=0.15 ps=1.6 w=0.5 l=0.15
X125 VGND.t245 Vbias.t14 XA.XIR[12].XIC[2].icell.SM VGND.t244 sky130_fd_pr__nfet_g5v0d10v5 ad=0.175 pd=1.7 as=0.0625 ps=0.75 w=0.5 l=0.5
X126 XA.XIR[6].XIC[4].icell.SM XA.XIR[6].XIC[4].icell.Ien Iout.t39 VGND.t174 sky130_fd_pr__nfet_g5v0d10v5 ad=0.0625 pd=0.75 as=0.175 ps=1.7 w=0.5 l=0.5
X127 VGND.t247 Vbias.t15 XA.XIR[11].XIC_15.icell.SM VGND.t246 sky130_fd_pr__nfet_g5v0d10v5 ad=0.175 pd=1.7 as=0.0625 ps=0.75 w=0.5 l=0.5
X128 XA.XIR[10].XIC_dummy_right.icell.Ien VPWR.t927 VPWR.t929 VPWR.t928 sky130_fd_pr__pfet_01v8 ad=0.0725 pd=0.79 as=0.15 ps=1.6 w=0.5 l=0.15
X129 XA.Cn[5].t10 thermo15c_0.XTBN.Y.t11 VGND.t2257 VGND.t440 sky130_fd_pr__nfet_01v8 ad=0.08775 pd=0.92 as=0.08775 ps=0.92 w=0.65 l=0.15
X130 XA.XIR[1].XIC_dummy_right.icell.SM XA.XIR[1].XIC_dummy_right.icell.Ien XA.XIR[1].XIC_dummy_right.icell.Iout VGND.t665 sky130_fd_pr__nfet_g5v0d10v5 ad=0.0625 pd=0.75 as=0.175 ps=1.7 w=0.5 l=0.5
X131 VGND.t249 Vbias.t16 XA.XIR[15].XIC[3].icell.SM VGND.t248 sky130_fd_pr__nfet_g5v0d10v5 ad=0.175 pd=1.7 as=0.0625 ps=0.75 w=0.5 l=0.5
X132 VGND.t251 Vbias.t17 XA.XIR[14].XIC[4].icell.SM VGND.t250 sky130_fd_pr__nfet_g5v0d10v5 ad=0.175 pd=1.7 as=0.0625 ps=0.75 w=0.5 l=0.5
X133 VGND.t502 XA.Cn[6].t14 XA.XIR[6].XIC[6].icell.PDM VGND.t501 sky130_fd_pr__nfet_01v8 ad=0.0725 pd=0.79 as=0.0725 ps=0.79 w=0.5 l=0.15
X134 VPWR.t1039 XThR.Tn[8].t16 XA.XIR[9].XIC[4].icell.PUM VPWR.t1038 sky130_fd_pr__pfet_01v8 ad=0.135 pd=1.54 as=0.0675 ps=0.77 w=0.5 l=0.15
X135 VPWR.t159 XThR.Tn[12].t15 XA.XIR[13].XIC[12].icell.PUM VPWR.t158 sky130_fd_pr__pfet_01v8 ad=0.135 pd=1.54 as=0.0675 ps=0.77 w=0.5 l=0.15
X136 VGND.t1760 VGND.t1758 XA.XIR[13].XIC_dummy_right.icell.SM VGND.t1759 sky130_fd_pr__nfet_g5v0d10v5 ad=0.175 pd=1.7 as=0.0625 ps=0.75 w=0.5 l=0.5
X137 XThR.Tn[9].t3 XThR.XTB2.Y a_n997_3755# VGND.t1425 sky130_fd_pr__nfet_01v8 ad=0.08775 pd=0.92 as=0.169 ps=1.82 w=0.65 l=0.15
X138 XA.Cn[0].t5 thermo15c_0.XTBN.Y.t12 a_2979_9615# VPWR.t1759 sky130_fd_pr__pfet_01v8_hvt ad=0.135 pd=1.27 as=0.135 ps=1.27 w=1 l=0.15
X139 XA.XIR[4].XIC_dummy_left.icell.PDM VPWR.t1932 VGND.t2180 VGND.t2179 sky130_fd_pr__nfet_01v8 ad=0.1312 pd=1.54 as=0.0725 ps=0.79 w=0.5 l=0.15
X140 XA.Cn[5].t6 thermo15c_0.XTBN.Y.t13 a_5949_9615# VPWR.t1029 sky130_fd_pr__pfet_01v8_hvt ad=0.135 pd=1.27 as=0.27 ps=2.54 w=1 l=0.15
X141 VGND.t415 thermo15c_0.XTB5.Y XA.Cn[4].t2 VGND.t68 sky130_fd_pr__nfet_01v8 ad=0.08775 pd=0.92 as=0.08775 ps=0.92 w=0.65 l=0.15
X142 XA.XIR[14].XIC[1].icell.PUM XA.Cn[1].t14 XA.XIR[14].XIC[1].icell.Ien VPWR.t100 sky130_fd_pr__pfet_01v8 ad=0.0675 pd=0.77 as=0.0725 ps=0.79 w=0.5 l=0.15
X143 VGND.t253 Vbias.t18 XA.XIR[9].XIC[2].icell.SM VGND.t252 sky130_fd_pr__nfet_g5v0d10v5 ad=0.175 pd=1.7 as=0.0625 ps=0.75 w=0.5 l=0.5
X144 a_9827_9569# thermo15c_0.XTB5.Y XA.Cn[12].t7 VGND.t412 sky130_fd_pr__nfet_01v8 ad=0.169 pd=1.82 as=0.08775 ps=0.92 w=0.65 l=0.15
X145 XA.XIR[13].XIC[0].icell.PUM XA.Cn[0].t12 XA.XIR[13].XIC[0].icell.Ien VPWR.t1710 sky130_fd_pr__pfet_01v8 ad=0.0675 pd=0.77 as=0.0725 ps=0.79 w=0.5 l=0.15
X146 XA.Cn[7].t7 thermo15c_0.XTBN.Y.t14 VGND.t2259 VGND.t2258 sky130_fd_pr__nfet_01v8 ad=0.08775 pd=0.92 as=0.169 ps=1.82 w=0.65 l=0.15
X147 XA.Cn[2].t4 thermo15c_0.XTBN.Y.t15 VGND.t2260 VGND.t872 sky130_fd_pr__nfet_01v8 ad=0.08775 pd=0.92 as=0.169 ps=1.82 w=0.65 l=0.15
X148 VGND.t1432 XA.Cn[10].t13 XA.XIR[0].XIC[10].icell.PDM VGND.t1431 sky130_fd_pr__nfet_01v8 ad=0.0725 pd=0.79 as=0.0725 ps=0.79 w=0.5 l=0.15
X149 a_n997_1579# XThR.XTBN.Y VGND.t2456 VGND.t2440 sky130_fd_pr__nfet_01v8 ad=0.08775 pd=0.92 as=0.08775 ps=0.92 w=0.65 l=0.15
X150 XA.XIR[6].XIC[14].icell.PDM XThR.Tn[5].t13 VGND.t1616 VGND.t1615 sky130_fd_pr__nfet_01v8 ad=0.1312 pd=1.54 as=0.0725 ps=0.79 w=0.5 l=0.15
X151 XA.XIR[6].XIC[8].icell.PDM XThR.Tn[5].t14 VGND.t1618 VGND.t1617 sky130_fd_pr__nfet_01v8 ad=0.1312 pd=1.54 as=0.0725 ps=0.79 w=0.5 l=0.15
X152 XA.XIR[10].XIC_dummy_left.icell.PUM VPWR.t925 XA.XIR[10].XIC_dummy_left.icell.Ien VPWR.t926 sky130_fd_pr__pfet_01v8 ad=0.0675 pd=0.77 as=0.0725 ps=0.79 w=0.5 l=0.15
X153 XA.XIR[9].XIC[14].icell.SM XA.XIR[9].XIC[14].icell.Ien Iout.t30 VGND.t153 sky130_fd_pr__nfet_g5v0d10v5 ad=0.0625 pd=0.75 as=0.175 ps=1.7 w=0.5 l=0.5
X154 VGND.t98 XA.Cn[4].t14 XA.XIR[14].XIC[4].icell.PDM VGND.t97 sky130_fd_pr__nfet_01v8 ad=0.0725 pd=0.79 as=0.0725 ps=0.79 w=0.5 l=0.15
X155 XA.XIR[8].XIC[6].icell.PDM XThR.Tn[8].t17 XA.XIR[8].XIC[6].icell.Ien VGND.t903 sky130_fd_pr__nfet_01v8 ad=0.0725 pd=0.79 as=0.2304 ps=2.18 w=0.5 l=0.15
X156 XA.XIR[1].XIC[7].icell.PUM XA.Cn[7].t9 XA.XIR[1].XIC[7].icell.Ien VPWR.t1090 sky130_fd_pr__pfet_01v8 ad=0.0675 pd=0.77 as=0.0725 ps=0.79 w=0.5 l=0.15
X157 XA.XIR[7].XIC[1].icell.PDM XThR.Tn[6].t16 VGND.t351 VGND.t350 sky130_fd_pr__nfet_01v8 ad=0.1312 pd=1.54 as=0.0725 ps=0.79 w=0.5 l=0.15
X158 XA.XIR[2].XIC[5].icell.PDM XThR.Tn[1].t16 VGND.t1812 VGND.t1811 sky130_fd_pr__nfet_01v8 ad=0.1312 pd=1.54 as=0.0725 ps=0.79 w=0.5 l=0.15
X159 XA.XIR[11].XIC[7].icell.PDM XThR.Tn[11].t16 XA.XIR[11].XIC[7].icell.Ien VGND.t1817 sky130_fd_pr__nfet_01v8 ad=0.0725 pd=0.79 as=0.2304 ps=2.18 w=0.5 l=0.15
X160 XA.XIR[4].XIC[8].icell.PUM XA.Cn[8].t13 XA.XIR[4].XIC[8].icell.Ien VPWR.t466 sky130_fd_pr__pfet_01v8 ad=0.0675 pd=0.77 as=0.0725 ps=0.79 w=0.5 l=0.15
X161 XA.XIR[9].XIC[3].icell.PDM XThR.Tn[8].t18 VGND.t905 VGND.t904 sky130_fd_pr__nfet_01v8 ad=0.1312 pd=1.54 as=0.0725 ps=0.79 w=0.5 l=0.15
X162 XA.XIR[0].XIC_15.icell.SM XA.XIR[0].XIC_15.icell.Ien Iout.t116 VGND.t880 sky130_fd_pr__nfet_g5v0d10v5 ad=0.0625 pd=0.75 as=0.175 ps=1.7 w=0.5 l=0.5
X163 XA.XIR[4].XIC[12].icell.SM XA.XIR[4].XIC[12].icell.Ien Iout.t62 VGND.t397 sky130_fd_pr__nfet_g5v0d10v5 ad=0.0625 pd=0.75 as=0.175 ps=1.7 w=0.5 l=0.5
X164 XA.XIR[14].XIC[9].icell.PDM XThR.Tn[13].t13 VGND.t212 VGND.t211 sky130_fd_pr__nfet_01v8 ad=0.1312 pd=1.54 as=0.0725 ps=0.79 w=0.5 l=0.15
X165 XA.XIR[11].XIC[12].icell.PUM XA.Cn[12].t13 XA.XIR[11].XIC[12].icell.Ien VPWR.t1916 sky130_fd_pr__pfet_01v8 ad=0.0675 pd=0.77 as=0.0725 ps=0.79 w=0.5 l=0.15
X166 XA.XIR[12].XIC[4].icell.Ien XThR.Tn[12].t16 VPWR.t161 VPWR.t160 sky130_fd_pr__pfet_01v8 ad=0.0725 pd=0.79 as=0.15 ps=1.6 w=0.5 l=0.15
X167 XA.XIR[3].XIC[4].icell.SM XA.XIR[3].XIC[4].icell.Ien Iout.t33 VGND.t156 sky130_fd_pr__nfet_g5v0d10v5 ad=0.0625 pd=0.75 as=0.175 ps=1.7 w=0.5 l=0.5
X168 XA.XIR[15].XIC[0].icell.Ien VPWR.t922 VPWR.t924 VPWR.t923 sky130_fd_pr__pfet_01v8 ad=0.0725 pd=0.79 as=0.15 ps=1.6 w=0.5 l=0.15
X169 VGND.t255 Vbias.t19 XA.XIR[8].XIC_15.icell.SM VGND.t254 sky130_fd_pr__nfet_g5v0d10v5 ad=0.175 pd=1.7 as=0.0625 ps=0.75 w=0.5 l=0.5
X170 VGND.t1973 XA.Cn[14].t13 XA.XIR[8].XIC[14].icell.PDM VGND.t1972 sky130_fd_pr__nfet_01v8 ad=0.0725 pd=0.79 as=0.0725 ps=0.79 w=0.5 l=0.15
X171 XA.XIR[7].XIC_dummy_right.icell.Ien VPWR.t919 VPWR.t921 VPWR.t920 sky130_fd_pr__pfet_01v8 ad=0.0725 pd=0.79 as=0.15 ps=1.6 w=0.5 l=0.15
X172 XA.XIR[4].XIC[0].icell.PDM XThR.Tn[4].t16 XA.XIR[4].XIC[0].icell.Ien VGND.t1330 sky130_fd_pr__nfet_01v8 ad=0.0725 pd=0.79 as=0.2304 ps=2.18 w=0.5 l=0.15
X173 VGND.t552 XA.Cn[8].t14 XA.XIR[8].XIC[8].icell.PDM VGND.t551 sky130_fd_pr__nfet_01v8 ad=0.0725 pd=0.79 as=0.0725 ps=0.79 w=0.5 l=0.15
X174 XA.XIR[14].XIC[14].icell.Ien XThR.Tn[14].t13 VPWR.t205 VPWR.t204 sky130_fd_pr__pfet_01v8 ad=0.0725 pd=0.79 as=0.15 ps=1.6 w=0.5 l=0.15
X175 VGND.t2261 thermo15c_0.XTBN.Y.t16 XA.Cn[1].t7 VGND.t391 sky130_fd_pr__nfet_01v8 ad=0.08775 pd=0.92 as=0.08775 ps=0.92 w=0.65 l=0.15
X176 VGND.t257 Vbias.t20 XA.XIR[1].XIC[5].icell.SM VGND.t256 sky130_fd_pr__nfet_g5v0d10v5 ad=0.175 pd=1.7 as=0.0625 ps=0.75 w=0.5 l=0.5
X177 VPWR.t163 XThR.Tn[12].t17 XA.XIR[13].XIC[10].icell.PUM VPWR.t162 sky130_fd_pr__pfet_01v8 ad=0.135 pd=1.54 as=0.0675 ps=0.77 w=0.5 l=0.15
X178 XA.XIR[7].XIC[3].icell.PUM XA.Cn[3].t13 XA.XIR[7].XIC[3].icell.Ien VPWR.t1675 sky130_fd_pr__pfet_01v8 ad=0.0675 pd=0.77 as=0.0725 ps=0.79 w=0.5 l=0.15
X179 XA.XIR[2].XIC_15.icell.PUM VPWR.t917 XA.XIR[2].XIC_15.icell.Ien VPWR.t918 sky130_fd_pr__pfet_01v8 ad=0.0675 pd=0.77 as=0.0725 ps=0.79 w=0.5 l=0.15
X180 XA.XIR[2].XIC[13].icell.PDM XThR.Tn[2].t15 XA.XIR[2].XIC[13].icell.Ien VGND.t2473 sky130_fd_pr__nfet_01v8 ad=0.0725 pd=0.79 as=0.2304 ps=2.18 w=0.5 l=0.15
X181 VPWR.t373 XThR.Tn[9].t15 XA.XIR[10].XIC[12].icell.PUM VPWR.t372 sky130_fd_pr__pfet_01v8 ad=0.135 pd=1.54 as=0.0675 ps=0.77 w=0.5 l=0.15
X182 VPWR.t1041 XThR.Tn[8].t19 XA.XIR[9].XIC[0].icell.PUM VPWR.t1040 sky130_fd_pr__pfet_01v8 ad=0.135 pd=1.54 as=0.0675 ps=0.77 w=0.5 l=0.15
X183 VGND.t259 Vbias.t21 XA.XIR[4].XIC[6].icell.SM VGND.t258 sky130_fd_pr__nfet_g5v0d10v5 ad=0.175 pd=1.7 as=0.0625 ps=0.75 w=0.5 l=0.5
X184 XA.XIR[1].XIC_dummy_left.icell.PDM VPWR.t1933 VGND.t2182 VGND.t2181 sky130_fd_pr__nfet_01v8 ad=0.1312 pd=1.54 as=0.0725 ps=0.79 w=0.5 l=0.15
X185 VPWR.t916 VPWR.t914 XA.XIR[6].XIC_dummy_left.icell.PUM VPWR.t915 sky130_fd_pr__pfet_01v8 ad=0.135 pd=1.54 as=0.0675 ps=0.77 w=0.5 l=0.15
X186 VPWR.t1760 thermo15c_0.XTBN.Y.t17 XA.Cn[10].t11 VPWR.t367 sky130_fd_pr__pfet_01v8_hvt ad=0.135 pd=1.27 as=0.135 ps=1.27 w=1 l=0.15
X187 VGND.t2455 XThR.XTBN.Y XThR.Tn[3].t11 VGND.t2418 sky130_fd_pr__nfet_01v8 ad=0.169 pd=1.82 as=0.08775 ps=0.92 w=0.65 l=0.15
X188 XA.XIR[3].XIC[11].icell.PDM XThR.Tn[2].t16 VGND.t2472 VGND.t2471 sky130_fd_pr__nfet_01v8 ad=0.1312 pd=1.54 as=0.0725 ps=0.79 w=0.5 l=0.15
X189 XA.XIR[6].XIC[8].icell.Ien XThR.Tn[6].t17 VPWR.t223 VPWR.t222 sky130_fd_pr__pfet_01v8 ad=0.0725 pd=0.79 as=0.15 ps=1.6 w=0.5 l=0.15
X190 XThR.Tn[0].t7 XThR.XTBN.Y a_n1049_8581# VPWR.t1832 sky130_fd_pr__pfet_01v8_hvt ad=0.135 pd=1.27 as=0.135 ps=1.27 w=1 l=0.15
X191 XA.XIR[13].XIC[12].icell.Ien XThR.Tn[13].t14 VPWR.t106 VPWR.t105 sky130_fd_pr__pfet_01v8 ad=0.0725 pd=0.79 as=0.15 ps=1.6 w=0.5 l=0.15
X192 XA.XIR[13].XIC[7].icell.SM XA.XIR[13].XIC[7].icell.Ien Iout.t92 VGND.t740 sky130_fd_pr__nfet_g5v0d10v5 ad=0.0625 pd=0.75 as=0.175 ps=1.7 w=0.5 l=0.5
X193 VPWR.t1479 VGND.t2688 XA.XIR[0].XIC[8].icell.PUM VPWR.t1478 sky130_fd_pr__pfet_01v8 ad=0.135 pd=1.54 as=0.0675 ps=0.77 w=0.5 l=0.15
X194 XA.XIR[10].XIC[14].icell.PDM XThR.Tn[10].t13 XA.XIR[10].XIC[14].icell.Ien VGND.t2489 sky130_fd_pr__nfet_01v8 ad=0.0725 pd=0.79 as=0.2304 ps=2.18 w=0.5 l=0.15
X195 XA.XIR[10].XIC[8].icell.PDM XThR.Tn[10].t14 XA.XIR[10].XIC[8].icell.Ien VGND.t2490 sky130_fd_pr__nfet_01v8 ad=0.0725 pd=0.79 as=0.2304 ps=2.18 w=0.5 l=0.15
X196 XA.Cn[12].t2 thermo15c_0.XTB5.Y VPWR.t342 VPWR.t23 sky130_fd_pr__pfet_01v8_hvt ad=0.135 pd=1.27 as=0.135 ps=1.27 w=1 l=0.15
X197 XA.XIR[1].XIC[11].icell.PUM XA.Cn[11].t14 XA.XIR[1].XIC[11].icell.Ien VPWR.t997 sky130_fd_pr__pfet_01v8 ad=0.0675 pd=0.77 as=0.0725 ps=0.79 w=0.5 l=0.15
X198 XThR.Tn[11].t11 XThR.XTBN.Y VPWR.t1831 VPWR.t1820 sky130_fd_pr__pfet_01v8_hvt ad=0.135 pd=1.27 as=0.135 ps=1.27 w=1 l=0.15
X199 XA.XIR[0].XIC[7].icell.Ien XThR.Tn[0].t14 VPWR.t996 VPWR.t995 sky130_fd_pr__pfet_01v8 ad=0.0725 pd=0.79 as=0.15 ps=1.6 w=0.5 l=0.15
X200 XA.XIR[3].XIC[2].icell.PDM XThR.Tn[2].t17 VGND.t2470 VGND.t2469 sky130_fd_pr__nfet_01v8 ad=0.1312 pd=1.54 as=0.0725 ps=0.79 w=0.5 l=0.15
X201 XA.XIR[8].XIC[9].icell.PUM XA.Cn[9].t14 XA.XIR[8].XIC[9].icell.Ien VPWR.t1247 sky130_fd_pr__pfet_01v8 ad=0.0675 pd=0.77 as=0.0725 ps=0.79 w=0.5 l=0.15
X202 XA.XIR[9].XIC[7].icell.PDM XThR.Tn[8].t20 VGND.t907 VGND.t906 sky130_fd_pr__nfet_01v8 ad=0.1312 pd=1.54 as=0.0725 ps=0.79 w=0.5 l=0.15
X203 XA.XIR[1].XIC_dummy_left.icell.SM XA.XIR[1].XIC_dummy_left.icell.Ien XA.XIR[1].XIC_dummy_left.icell.Iout VGND.t1116 sky130_fd_pr__nfet_g5v0d10v5 ad=0.0625 pd=0.75 as=0.175 ps=1.7 w=0.5 l=0.5
X204 XA.XIR[6].XIC[3].icell.PDM XThR.Tn[5].t15 VGND.t1620 VGND.t1619 sky130_fd_pr__nfet_01v8 ad=0.1312 pd=1.54 as=0.0725 ps=0.79 w=0.5 l=0.15
X205 VGND.t849 XA.Cn[11].t15 XA.XIR[5].XIC[11].icell.PDM VGND.t848 sky130_fd_pr__nfet_01v8 ad=0.0725 pd=0.79 as=0.0725 ps=0.79 w=0.5 l=0.15
X206 XA.XIR[11].XIC[10].icell.PUM XA.Cn[10].t14 XA.XIR[11].XIC[10].icell.Ien VPWR.t1377 sky130_fd_pr__pfet_01v8 ad=0.0675 pd=0.77 as=0.0725 ps=0.79 w=0.5 l=0.15