* NGSPICE file created from csdac255_parax.ext - technology: sky130A

.subckt csdac255_parax Iout VPWR VGND Vbias data[0] data[1] data[2] data[3] data[4]
+ data[5] data[6] data[7] bias[0] bias[1] bias[2]
X0 XA.XIR[2].XIC_dummy_right.icell.SM XA.XIR[2].XIC_dummy_right.icell.Ien XA.XIR[2].XIC_dummy_right.icell.Iout VGND.t1889 sky130_fd_pr__nfet_g5v0d10v5 ad=0.0625 pd=0.75 as=0.175 ps=1.7 w=0.5 l=0.5
X1 VPWR.t1153 XThR.Tn[2].t12 XA.XIR[3].XIC[8].icell.PUM VPWR.t1152 sky130_fd_pr__pfet_01v8 ad=0.135 pd=1.54 as=0.0675 ps=0.77 w=0.5 l=0.15
X2 XA.XIR[12].XIC[10].icell.SM XA.XIR[12].XIC[10].icell.Ien Iout.t0 VGND.t0 sky130_fd_pr__nfet_g5v0d10v5 ad=0.0625 pd=0.75 as=0.175 ps=1.7 w=0.5 l=0.5
X3 XA.XIR[11].XIC_dummy_right.icell.Ien VPWR.t1781 VPWR.t1783 VPWR.t1782 sky130_fd_pr__pfet_01v8 ad=0.0725 pd=0.79 as=0.15 ps=1.6 w=0.5 l=0.15
X4 VGND.t2290 XThC.Tn[10].t12 XA.XIR[4].XIC[10].icell.PDM VGND.t2289 sky130_fd_pr__nfet_01v8 ad=0.0725 pd=0.79 as=0.0725 ps=0.79 w=0.5 l=0.15
X5 VGND.t943 XThR.XTBN.Y.t4 a_n997_2667# VGND.t942 sky130_fd_pr__nfet_01v8 ad=0.08775 pd=0.92 as=0.08775 ps=0.92 w=0.65 l=0.15
X6 VPWR.t237 XThR.Tn[6].t12 XA.XIR[7].XIC[8].icell.PUM VPWR.t236 sky130_fd_pr__pfet_01v8 ad=0.135 pd=1.54 as=0.0675 ps=0.77 w=0.5 l=0.15
X7 XA.XIR[14].XIC[5].icell.Ien XThR.Tn[14].t12 VPWR.t1056 VPWR.t1055 sky130_fd_pr__pfet_01v8 ad=0.0725 pd=0.79 as=0.15 ps=1.6 w=0.5 l=0.15
X8 XA.XIR[12].XIC[6].icell.PDM XThR.Tn[12].t12 XA.XIR[12].XIC[6].icell.Ien VGND.t2569 sky130_fd_pr__nfet_01v8 ad=0.0725 pd=0.79 as=0.2304 ps=2.18 w=0.5 l=0.15
X9 XThC.Tn[6].t7 XThC.XTBN.Y.t4 VGND.t2238 VGND.t2237 sky130_fd_pr__nfet_01v8 ad=0.08775 pd=0.92 as=0.169 ps=1.82 w=0.65 l=0.15
X10 XA.XIR[5].XIC_dummy_left.icell.PDM VPWR.t1931 VGND.t1589 VGND.t1588 sky130_fd_pr__nfet_01v8 ad=0.1312 pd=1.54 as=0.0725 ps=0.79 w=0.5 l=0.15
X11 XA.XIR[10].XIC[2].icell.PDM XThR.Tn[9].t12 VGND.t547 VGND.t546 sky130_fd_pr__nfet_01v8 ad=0.1312 pd=1.54 as=0.0725 ps=0.79 w=0.5 l=0.15
X12 VGND.t2239 XThC.XTBN.Y.t5 XThC.Tn[5].t11 VGND.t1009 sky130_fd_pr__nfet_01v8 ad=0.08775 pd=0.92 as=0.08775 ps=0.92 w=0.65 l=0.15
X13 XA.XIR[15].XIC[9].icell.PUM XThC.Tn[9].t12 XA.XIR[15].XIC[9].icell.Ien VPWR.t1178 sky130_fd_pr__pfet_01v8 ad=0.0675 pd=0.77 as=0.0725 ps=0.79 w=0.5 l=0.15
X14 XA.XIR[9].XIC[0].icell.SM XA.XIR[9].XIC[0].icell.Ien Iout.t193 VGND.t1957 sky130_fd_pr__nfet_g5v0d10v5 ad=0.0625 pd=0.75 as=0.175 ps=1.7 w=0.5 l=0.5
X15 XA.XIR[13].XIC[3].icell.PDM XThR.Tn[12].t13 VGND.t1359 VGND.t1358 sky130_fd_pr__nfet_01v8 ad=0.1312 pd=1.54 as=0.0725 ps=0.79 w=0.5 l=0.15
X16 VGND.t770 XThC.Tn[11].t12 XA.XIR[12].XIC[11].icell.PDM VGND.t769 sky130_fd_pr__nfet_01v8 ad=0.0725 pd=0.79 as=0.0725 ps=0.79 w=0.5 l=0.15
X17 XA.XIR[12].XIC[1].icell.SM XA.XIR[12].XIC[1].icell.Ien Iout.t86 VGND.t673 sky130_fd_pr__nfet_g5v0d10v5 ad=0.0625 pd=0.75 as=0.175 ps=1.7 w=0.5 l=0.5
X18 XA.XIR[8].XIC[12].icell.SM XA.XIR[8].XIC[12].icell.Ien Iout.t200 VGND.t2016 sky130_fd_pr__nfet_g5v0d10v5 ad=0.0625 pd=0.75 as=0.175 ps=1.7 w=0.5 l=0.5
X19 XThC.Tn[12].t7 XThC.XTB5.Y VPWR.t1048 VPWR.t256 sky130_fd_pr__pfet_01v8_hvt ad=0.135 pd=1.27 as=0.135 ps=1.27 w=1 l=0.15
X20 XA.XIR[8].XIC_15.icell.PDM VPWR.t1932 VGND.t1591 VGND.t1590 sky130_fd_pr__nfet_01v8 ad=0.1312 pd=1.54 as=0.0725 ps=0.79 w=0.5 l=0.15
X21 XA.XIR[7].XIC[13].icell.SM XA.XIR[7].XIC[13].icell.Ien Iout.t153 VGND.t1300 sky130_fd_pr__nfet_g5v0d10v5 ad=0.0625 pd=0.75 as=0.175 ps=1.7 w=0.5 l=0.5
X22 XA.XIR[14].XIC[13].icell.PUM XThC.Tn[13].t12 XA.XIR[14].XIC[13].icell.Ien VPWR.t565 sky130_fd_pr__pfet_01v8 ad=0.0675 pd=0.77 as=0.0725 ps=0.79 w=0.5 l=0.15
X23 a_2979_9615# XThC.XTBN.Y.t6 XThC.Tn[0].t7 VPWR.t1333 sky130_fd_pr__pfet_01v8_hvt ad=0.135 pd=1.27 as=0.135 ps=1.27 w=1 l=0.15
X24 XA.XIR[11].XIC_dummy_left.icell.PUM VPWR.t1779 XA.XIR[11].XIC_dummy_left.icell.Ien VPWR.t1780 sky130_fd_pr__pfet_01v8 ad=0.0675 pd=0.77 as=0.0725 ps=0.79 w=0.5 l=0.15
X25 XA.XIR[10].XIC[14].icell.SM XA.XIR[10].XIC[14].icell.Ien Iout.t66 VGND.t456 sky130_fd_pr__nfet_g5v0d10v5 ad=0.0625 pd=0.75 as=0.175 ps=1.7 w=0.5 l=0.5
X26 a_4861_9615# XThC.XTB4.Y.t2 VPWR.t1799 VPWR.t318 sky130_fd_pr__pfet_01v8_hvt ad=0.135 pd=1.27 as=0.135 ps=1.27 w=1 l=0.15
X27 a_5949_9615# XThC.XTBN.Y.t7 XThC.Tn[5].t7 VPWR.t490 sky130_fd_pr__pfet_01v8_hvt ad=0.135 pd=1.27 as=0.135 ps=1.27 w=1 l=0.15
X28 XA.XIR[6].XIC[10].icell.PDM XThR.Tn[6].t13 XA.XIR[6].XIC[10].icell.Ien VGND.t374 sky130_fd_pr__nfet_01v8 ad=0.0725 pd=0.79 as=0.2304 ps=2.18 w=0.5 l=0.15
X29 XA.XIR[0].XIC[4].icell.PDM VGND.t1238 VGND.t1240 VGND.t1239 sky130_fd_pr__nfet_01v8 ad=0.1312 pd=1.54 as=0.0725 ps=0.79 w=0.5 l=0.15
X30 XA.XIR[4].XIC[12].icell.PDM XThR.Tn[3].t12 VGND.t1732 VGND.t1731 sky130_fd_pr__nfet_01v8 ad=0.1312 pd=1.54 as=0.0725 ps=0.79 w=0.5 l=0.15
X31 XThR.Tn[5].t11 XThR.XTBN.Y.t5 a_n1049_5611# VPWR.t270 sky130_fd_pr__pfet_01v8_hvt ad=0.135 pd=1.27 as=0.135 ps=1.27 w=1 l=0.15
X32 XThC.Tn[4].t3 XThC.XTB5.Y VGND.t1726 VGND.t1013 sky130_fd_pr__nfet_01v8 ad=0.08775 pd=0.92 as=0.08775 ps=0.92 w=0.65 l=0.15
X33 VGND.t2240 XThC.XTBN.Y.t8 XThC.Tn[2].t11 VGND.t667 sky130_fd_pr__nfet_01v8 ad=0.08775 pd=0.92 as=0.08775 ps=0.92 w=0.65 l=0.15
X34 XThR.XTB2.Y XThR.XTB6.A VPWR.t925 VPWR.t232 sky130_fd_pr__pfet_01v8_hvt ad=0.135 pd=1.27 as=0.26 ps=2.52 w=1 l=0.15
X35 XA.XIR[7].XIC[13].icell.PDM XThR.Tn[6].t14 VGND.t376 VGND.t375 sky130_fd_pr__nfet_01v8 ad=0.1312 pd=1.54 as=0.0725 ps=0.79 w=0.5 l=0.15
X36 XA.XIR[6].XIC[11].icell.SM XA.XIR[6].XIC[11].icell.Ien Iout.t164 VGND.t1344 sky130_fd_pr__nfet_g5v0d10v5 ad=0.0625 pd=0.75 as=0.175 ps=1.7 w=0.5 l=0.5
X37 VGND.t141 XThC.Tn[2].t12 XA.XIR[12].XIC[2].icell.PDM VGND.t140 sky130_fd_pr__nfet_01v8 ad=0.0725 pd=0.79 as=0.0725 ps=0.79 w=0.5 l=0.15
X38 VPWR.t1778 VPWR.t1776 XA.XIR[10].XIC_dummy_left.icell.PUM VPWR.t1777 sky130_fd_pr__pfet_01v8 ad=0.135 pd=1.54 as=0.0675 ps=0.77 w=0.5 l=0.15
X39 VGND.t1593 VPWR.t1933 XA.XIR[7].XIC_dummy_left.icell.PDM VGND.t1592 sky130_fd_pr__nfet_01v8 ad=0.0725 pd=0.79 as=0.0725 ps=0.79 w=0.5 l=0.15
X40 VPWR.t1050 XThR.Tn[3].t13 XA.XIR[4].XIC[11].icell.PUM VPWR.t1049 sky130_fd_pr__pfet_01v8 ad=0.135 pd=1.54 as=0.0675 ps=0.77 w=0.5 l=0.15
X41 VGND.t1407 Vbias.t12 XA.XIR[14].XIC[11].icell.SM VGND.t1406 sky130_fd_pr__nfet_g5v0d10v5 ad=0.175 pd=1.7 as=0.0625 ps=0.75 w=0.5 l=0.5
X42 XA.XIR[2].XIC[1].icell.PUM XThC.Tn[1].t12 XA.XIR[2].XIC[1].icell.Ien VPWR.t1256 sky130_fd_pr__pfet_01v8 ad=0.0675 pd=0.77 as=0.0725 ps=0.79 w=0.5 l=0.15
X43 VGND.t1293 XThC.Tn[3].t12 XA.XIR[15].XIC[3].icell.PDM VGND.t1292 sky130_fd_pr__nfet_01v8 ad=0.0725 pd=0.79 as=0.0725 ps=0.79 w=0.5 l=0.15
X44 VGND.t1595 VPWR.t1934 XA.XIR[10].XIC_15.icell.PDM VGND.t1594 sky130_fd_pr__nfet_01v8 ad=0.0725 pd=0.79 as=0.0725 ps=0.79 w=0.5 l=0.15
X45 VPWR.t669 XThR.Tn[10].t12 XA.XIR[11].XIC[9].icell.PUM VPWR.t668 sky130_fd_pr__pfet_01v8 ad=0.135 pd=1.54 as=0.0675 ps=0.77 w=0.5 l=0.15
X46 XA.XIR[0].XIC[14].icell.PUM XThC.Tn[14].t12 XA.XIR[0].XIC[14].icell.Ien VPWR.t43 sky130_fd_pr__pfet_01v8 ad=0.0675 pd=0.77 as=0.0725 ps=0.79 w=0.5 l=0.15
X47 XA.XIR[13].XIC_dummy_left.icell.Ien VPWR.t1773 VPWR.t1775 VPWR.t1774 sky130_fd_pr__pfet_01v8 ad=0.0725 pd=0.79 as=0.15 ps=1.6 w=0.5 l=0.15
X48 a_7651_9569# XThC.XTB1.Y.t3 XThC.Tn[8].t3 VGND.t309 sky130_fd_pr__nfet_01v8 ad=0.08775 pd=0.92 as=0.08775 ps=0.92 w=0.65 l=0.15
X49 VGND.t1409 Vbias.t13 XA.XIR[2].XIC[5].icell.SM VGND.t1408 sky130_fd_pr__nfet_g5v0d10v5 ad=0.175 pd=1.7 as=0.0625 ps=0.75 w=0.5 l=0.5
X50 XA.XIR[1].XIC[6].icell.Ien XThR.Tn[1].t12 VPWR.t1020 VPWR.t1019 sky130_fd_pr__pfet_01v8 ad=0.0725 pd=0.79 as=0.15 ps=1.6 w=0.5 l=0.15
X51 a_10051_9569# XThC.XTB6.Y XThC.Tn[13].t3 VGND.t664 sky130_fd_pr__nfet_01v8 ad=0.169 pd=1.82 as=0.08775 ps=0.92 w=0.65 l=0.15
X52 VGND.t2494 XThC.Tn[4].t12 XA.XIR[2].XIC[4].icell.PDM VGND.t2493 sky130_fd_pr__nfet_01v8 ad=0.0725 pd=0.79 as=0.0725 ps=0.79 w=0.5 l=0.15
X53 XThC.XTB5.Y XThC.XTB7.B VGND.t1014 VGND.t1013 sky130_fd_pr__nfet_01v8 ad=0.08775 pd=0.92 as=0.169 ps=1.82 w=0.65 l=0.15
X54 XThC.Tn[7].t7 XThC.XTBN.Y.t9 VPWR.t1335 VPWR.t1334 sky130_fd_pr__pfet_01v8_hvt ad=0.135 pd=1.27 as=0.26 ps=2.52 w=1 l=0.15
X55 XA.XIR[10].XIC[6].icell.PDM XThR.Tn[9].t13 VGND.t549 VGND.t548 sky130_fd_pr__nfet_01v8 ad=0.1312 pd=1.54 as=0.0725 ps=0.79 w=0.5 l=0.15
X56 VGND.t1263 XThR.XTB7.Y XThR.Tn[6].t3 VGND.t1262 sky130_fd_pr__nfet_01v8 ad=0.08775 pd=0.92 as=0.08775 ps=0.92 w=0.65 l=0.15
X57 XA.XIR[4].XIC[7].icell.Ien XThR.Tn[4].t12 VPWR.t1363 VPWR.t1362 sky130_fd_pr__pfet_01v8 ad=0.0725 pd=0.79 as=0.15 ps=1.6 w=0.5 l=0.15
X58 VPWR.t649 XThR.XTBN.Y.t6 XThR.Tn[9].t3 VPWR.t414 sky130_fd_pr__pfet_01v8_hvt ad=0.135 pd=1.27 as=0.135 ps=1.27 w=1 l=0.15
X59 XThR.XTB7.Y XThR.XTB7.A VGND.t370 VGND.t369 sky130_fd_pr__nfet_01v8 ad=0.08775 pd=0.92 as=0.169 ps=1.82 w=0.65 l=0.15
X60 XA.XIR[3].XIC[8].icell.Ien XThR.Tn[3].t14 VPWR.t1052 VPWR.t1051 sky130_fd_pr__pfet_01v8 ad=0.0725 pd=0.79 as=0.15 ps=1.6 w=0.5 l=0.15
X61 VPWR.t1054 XThR.Tn[3].t15 XA.XIR[4].XIC[2].icell.PUM VPWR.t1053 sky130_fd_pr__pfet_01v8 ad=0.135 pd=1.54 as=0.0675 ps=0.77 w=0.5 l=0.15
X62 XA.XIR[13].XIC[7].icell.PDM XThR.Tn[12].t14 VGND.t1361 VGND.t1360 sky130_fd_pr__nfet_01v8 ad=0.1312 pd=1.54 as=0.0725 ps=0.79 w=0.5 l=0.15
X63 XA.XIR[1].XIC[9].icell.PDM XThR.Tn[1].t13 XA.XIR[1].XIC[9].icell.Ien VGND.t1582 sky130_fd_pr__nfet_01v8 ad=0.0725 pd=0.79 as=0.2304 ps=2.18 w=0.5 l=0.15
X64 VPWR.t1151 XThR.Tn[2].t13 XA.XIR[3].XIC[3].icell.PUM VPWR.t1150 sky130_fd_pr__pfet_01v8 ad=0.135 pd=1.54 as=0.0675 ps=0.77 w=0.5 l=0.15
X65 XA.XIR[5].XIC_dummy_left.icell.SM XA.XIR[5].XIC_dummy_left.icell.Ien XA.XIR[5].XIC_dummy_left.icell.Iout VGND.t147 sky130_fd_pr__nfet_g5v0d10v5 ad=0.0625 pd=0.75 as=0.175 ps=1.7 w=0.5 l=0.5
X66 VPWR.t239 XThR.Tn[6].t15 XA.XIR[7].XIC[3].icell.PUM VPWR.t238 sky130_fd_pr__pfet_01v8 ad=0.135 pd=1.54 as=0.0675 ps=0.77 w=0.5 l=0.15
X67 VPWR.t1772 VPWR.t1770 XA.XIR[2].XIC_15.icell.PUM VPWR.t1771 sky130_fd_pr__pfet_01v8 ad=0.135 pd=1.54 as=0.0675 ps=0.77 w=0.5 l=0.15
X68 a_6243_9615# XThC.XTB7.Y VPWR.t870 VPWR.t317 sky130_fd_pr__pfet_01v8_hvt ad=0.28 pd=2.56 as=0.135 ps=1.27 w=1 l=0.15
X69 XA.XIR[11].XIC[14].icell.PDM XThR.Tn[11].t12 XA.XIR[11].XIC[14].icell.Ien VGND.t106 sky130_fd_pr__nfet_01v8 ad=0.0725 pd=0.79 as=0.2304 ps=2.18 w=0.5 l=0.15
X70 XA.XIR[11].XIC[8].icell.PDM XThR.Tn[11].t13 XA.XIR[11].XIC[8].icell.Ien VGND.t107 sky130_fd_pr__nfet_01v8 ad=0.0725 pd=0.79 as=0.2304 ps=2.18 w=0.5 l=0.15
X71 XA.XIR[4].XIC[10].icell.PDM XThR.Tn[3].t16 VGND.t1024 VGND.t1023 sky130_fd_pr__nfet_01v8 ad=0.1312 pd=1.54 as=0.0725 ps=0.79 w=0.5 l=0.15
X72 XThR.Tn[7].t7 XThR.XTBN.Y.t7 VPWR.t651 VPWR.t650 sky130_fd_pr__pfet_01v8_hvt ad=0.135 pd=1.27 as=0.26 ps=2.52 w=1 l=0.15
X73 XA.XIR[1].XIC[12].icell.PDM XThR.Tn[0].t12 VGND.t381 VGND.t380 sky130_fd_pr__nfet_01v8 ad=0.1312 pd=1.54 as=0.0725 ps=0.79 w=0.5 l=0.15
X74 a_8963_9569# XThC.XTBN.Y.t10 VGND.t2241 VGND.t394 sky130_fd_pr__nfet_01v8 ad=0.08775 pd=0.92 as=0.08775 ps=0.92 w=0.65 l=0.15
X75 VGND.t1411 Vbias.t14 XA.XIR[12].XIC[7].icell.SM VGND.t1410 sky130_fd_pr__nfet_g5v0d10v5 ad=0.175 pd=1.7 as=0.0625 ps=0.75 w=0.5 l=0.5
X76 VGND.t502 XThC.Tn[6].t12 XA.XIR[12].XIC[6].icell.PDM VGND.t501 sky130_fd_pr__nfet_01v8 ad=0.0725 pd=0.79 as=0.0725 ps=0.79 w=0.5 l=0.15
X77 XA.XIR[6].XIC[9].icell.SM XA.XIR[6].XIC[9].icell.Ien Iout.t140 VGND.t1072 sky130_fd_pr__nfet_g5v0d10v5 ad=0.0625 pd=0.75 as=0.175 ps=1.7 w=0.5 l=0.5
X78 XA.XIR[2].XIC_dummy_left.icell.SM XA.XIR[2].XIC_dummy_left.icell.Ien XA.XIR[2].XIC_dummy_left.icell.Iout VGND.t1098 sky130_fd_pr__nfet_g5v0d10v5 ad=0.0625 pd=0.75 as=0.175 ps=1.7 w=0.5 l=0.5
X79 XA.XIR[3].XIC[11].icell.SM XA.XIR[3].XIC[11].icell.Ien Iout.t126 VGND.t974 sky130_fd_pr__nfet_g5v0d10v5 ad=0.0625 pd=0.75 as=0.175 ps=1.7 w=0.5 l=0.5
X80 VGND.t1597 VPWR.t1935 XA.XIR[4].XIC_dummy_left.icell.PDM VGND.t1596 sky130_fd_pr__nfet_01v8 ad=0.0725 pd=0.79 as=0.0725 ps=0.79 w=0.5 l=0.15
X81 VGND.t944 XThR.XTBN.Y.t8 XThR.Tn[5].t7 VGND.t540 sky130_fd_pr__nfet_01v8 ad=0.169 pd=1.82 as=0.08775 ps=0.92 w=0.65 l=0.15
X82 VGND.t1413 Vbias.t15 XA.XIR[15].XIC[8].icell.SM VGND.t1412 sky130_fd_pr__nfet_g5v0d10v5 ad=0.175 pd=1.7 as=0.0625 ps=0.75 w=0.5 l=0.5
X83 VGND.t1415 Vbias.t16 XA.XIR[14].XIC[9].icell.SM VGND.t1414 sky130_fd_pr__nfet_g5v0d10v5 ad=0.175 pd=1.7 as=0.0625 ps=0.75 w=0.5 l=0.5
X84 VGND.t1270 XThC.Tn[7].t8 XA.XIR[15].XIC[7].icell.PDM VGND.t1269 sky130_fd_pr__nfet_01v8 ad=0.0725 pd=0.79 as=0.0725 ps=0.79 w=0.5 l=0.15
X85 VGND.t772 XThC.Tn[11].t13 XA.XIR[6].XIC[11].icell.PDM VGND.t771 sky130_fd_pr__nfet_01v8 ad=0.0725 pd=0.79 as=0.0725 ps=0.79 w=0.5 l=0.15
X86 VGND.t2150 XThC.Tn[1].t13 XA.XIR[3].XIC[1].icell.PDM VGND.t2149 sky130_fd_pr__nfet_01v8 ad=0.0725 pd=0.79 as=0.0725 ps=0.79 w=0.5 l=0.15
X87 XA.XIR[4].XIC[11].icell.Ien XThR.Tn[4].t13 VPWR.t1365 VPWR.t1364 sky130_fd_pr__pfet_01v8 ad=0.0725 pd=0.79 as=0.15 ps=1.6 w=0.5 l=0.15
X88 VPWR.t117 XThR.XTB6.Y a_n1049_5611# VPWR.t116 sky130_fd_pr__pfet_01v8_hvt ad=0.135 pd=1.27 as=0.28 ps=2.56 w=1 l=0.15
X89 XA.XIR[14].XIC[6].icell.PUM XThC.Tn[6].t13 XA.XIR[14].XIC[6].icell.Ien VPWR.t354 sky130_fd_pr__pfet_01v8 ad=0.0675 pd=0.77 as=0.0725 ps=0.79 w=0.5 l=0.15
X90 VGND.t1417 Vbias.t17 XA.XIR[9].XIC[7].icell.SM VGND.t1416 sky130_fd_pr__nfet_g5v0d10v5 ad=0.175 pd=1.7 as=0.0625 ps=0.75 w=0.5 l=0.5
X91 VGND.t982 XThC.Tn[2].t13 XA.XIR[6].XIC[2].icell.PDM VGND.t981 sky130_fd_pr__nfet_01v8 ad=0.0725 pd=0.79 as=0.0725 ps=0.79 w=0.5 l=0.15
X92 XA.XIR[11].XIC[9].icell.Ien XThR.Tn[11].t14 VPWR.t45 VPWR.t44 sky130_fd_pr__pfet_01v8 ad=0.0725 pd=0.79 as=0.15 ps=1.6 w=0.5 l=0.15
X93 XA.XIR[6].XIC_dummy_left.icell.PDM VPWR.t1936 XA.XIR[6].XIC_dummy_left.icell.Ien VGND.t1598 sky130_fd_pr__nfet_01v8 ad=0.0725 pd=0.79 as=0.2304 ps=2.18 w=0.5 l=0.15
X94 a_n1049_7787# XThR.XTB2.Y VPWR.t1899 VPWR.t725 sky130_fd_pr__pfet_01v8_hvt ad=0.135 pd=1.27 as=0.135 ps=1.27 w=1 l=0.15
X95 VGND.t1963 XThC.Tn[9].t13 XA.XIR[14].XIC[9].icell.PDM VGND.t1962 sky130_fd_pr__nfet_01v8 ad=0.0725 pd=0.79 as=0.0725 ps=0.79 w=0.5 l=0.15
X96 XA.XIR[8].XIC[11].icell.PDM XThR.Tn[8].t12 XA.XIR[8].XIC[11].icell.Ien VGND.t885 sky130_fd_pr__nfet_01v8 ad=0.0725 pd=0.79 as=0.2304 ps=2.18 w=0.5 l=0.15
X97 VGND.t1419 Vbias.t18 XA.XIR[2].XIC[0].icell.SM VGND.t1418 sky130_fd_pr__nfet_g5v0d10v5 ad=0.175 pd=1.7 as=0.0625 ps=0.75 w=0.5 l=0.5
X98 XA.XIR[1].XIC[1].icell.Ien XThR.Tn[1].t14 VPWR.t1022 VPWR.t1021 sky130_fd_pr__pfet_01v8 ad=0.0725 pd=0.79 as=0.15 ps=1.6 w=0.5 l=0.15
X99 XA.XIR[13].XIC[4].icell.PUM XThC.Tn[4].t13 XA.XIR[13].XIC[4].icell.Ien VPWR.t1813 sky130_fd_pr__pfet_01v8 ad=0.0675 pd=0.77 as=0.0725 ps=0.79 w=0.5 l=0.15
X100 XA.XIR[8].XIC_dummy_right.icell.PUM VPWR.t1768 XA.XIR[8].XIC_dummy_right.icell.Ien VPWR.t1769 sky130_fd_pr__pfet_01v8 ad=0.0675 pd=0.77 as=0.0725 ps=0.79 w=0.5 l=0.15
X101 VGND.t1421 Vbias.t19 XA.XIR[0].XIC[13].icell.SM VGND.t1420 sky130_fd_pr__nfet_g5v0d10v5 ad=0.175 pd=1.7 as=0.0625 ps=0.75 w=0.5 l=0.5
X102 XA.XIR[1].XIC[10].icell.PDM XThR.Tn[0].t13 VGND.t383 VGND.t382 sky130_fd_pr__nfet_01v8 ad=0.1312 pd=1.54 as=0.0725 ps=0.79 w=0.5 l=0.15
X103 XA.XIR[4].XIC[2].icell.Ien XThR.Tn[4].t14 VPWR.t1367 VPWR.t1366 sky130_fd_pr__pfet_01v8 ad=0.0725 pd=0.79 as=0.15 ps=1.6 w=0.5 l=0.15
X104 XA.XIR[9].XIC[14].icell.PDM XThR.Tn[8].t13 VGND.t887 VGND.t886 sky130_fd_pr__nfet_01v8 ad=0.1312 pd=1.54 as=0.0725 ps=0.79 w=0.5 l=0.15
X105 XA.XIR[9].XIC[8].icell.PDM XThR.Tn[8].t14 VGND.t889 VGND.t888 sky130_fd_pr__nfet_01v8 ad=0.1312 pd=1.54 as=0.0725 ps=0.79 w=0.5 l=0.15
X106 XA.XIR[3].XIC[3].icell.Ien XThR.Tn[3].t17 VPWR.t698 VPWR.t697 sky130_fd_pr__pfet_01v8 ad=0.0725 pd=0.79 as=0.15 ps=1.6 w=0.5 l=0.15
X107 VGND.t2117 XThC.Tn[12].t12 XA.XIR[0].XIC[12].icell.PDM VGND.t2116 sky130_fd_pr__nfet_01v8 ad=0.0725 pd=0.79 as=0.0725 ps=0.79 w=0.5 l=0.15
X108 VPWR.t830 XThC.XTB3.Y a_4067_9615# VPWR.t319 sky130_fd_pr__pfet_01v8_hvt ad=0.135 pd=1.27 as=0.135 ps=1.27 w=1 l=0.15
X109 XA.XIR[1].XIC[4].icell.PDM XThR.Tn[1].t15 XA.XIR[1].XIC[4].icell.Ien VGND.t1583 sky130_fd_pr__nfet_01v8 ad=0.0725 pd=0.79 as=0.2304 ps=2.18 w=0.5 l=0.15
X110 XA.XIR[5].XIC[1].icell.PDM XThR.Tn[5].t12 XA.XIR[5].XIC[1].icell.Ien VGND.t86 sky130_fd_pr__nfet_01v8 ad=0.0725 pd=0.79 as=0.2304 ps=2.18 w=0.5 l=0.15
X111 VPWR.t609 data[4].t0 a_n1335_4229# VPWR.t608 sky130_fd_pr__pfet_01v8_hvt ad=0.26 pd=2.52 as=0.105 ps=1.21 w=1 l=0.15
X112 XA.XIR[2].XIC_15.icell.Ien XThR.Tn[2].t14 VPWR.t1149 VPWR.t1148 sky130_fd_pr__pfet_01v8 ad=0.0725 pd=0.79 as=0.15 ps=1.6 w=0.5 l=0.15
X113 XA.XIR[3].XIC[9].icell.SM XA.XIR[3].XIC[9].icell.Ien Iout.t166 VGND.t1442 sky130_fd_pr__nfet_g5v0d10v5 ad=0.0625 pd=0.75 as=0.175 ps=1.7 w=0.5 l=0.5
X114 XA.XIR[9].XIC[1].icell.PDM XThR.Tn[9].t14 XA.XIR[9].XIC[1].icell.Ien VGND.t550 sky130_fd_pr__nfet_01v8 ad=0.0725 pd=0.79 as=0.2304 ps=2.18 w=0.5 l=0.15
X115 VGND.t946 XThR.XTBN.Y.t9 XThR.Tn[7].t3 VGND.t945 sky130_fd_pr__nfet_01v8 ad=0.08775 pd=0.92 as=0.08775 ps=0.92 w=0.65 l=0.15
X116 XA.XIR[4].XIC[5].icell.PDM XThR.Tn[4].t15 XA.XIR[4].XIC[5].icell.Ien VGND.t1995 sky130_fd_pr__nfet_01v8 ad=0.0725 pd=0.79 as=0.2304 ps=2.18 w=0.5 l=0.15
X117 a_n1319_5317# XThR.XTB7.A VPWR.t235 VPWR.t234 sky130_fd_pr__pfet_01v8_hvt ad=0.105 pd=1.21 as=0.26 ps=2.52 w=1 l=0.15
X118 XA.XIR[8].XIC[2].icell.PDM XThR.Tn[8].t15 XA.XIR[8].XIC[2].icell.Ien VGND.t162 sky130_fd_pr__nfet_01v8 ad=0.0725 pd=0.79 as=0.2304 ps=2.18 w=0.5 l=0.15
X119 VPWR.t5 XThR.Tn[13].t12 XA.XIR[14].XIC[14].icell.PUM VPWR.t4 sky130_fd_pr__pfet_01v8 ad=0.135 pd=1.54 as=0.0675 ps=0.77 w=0.5 l=0.15
X120 XA.XIR[11].XIC[3].icell.PDM XThR.Tn[11].t15 XA.XIR[11].XIC[3].icell.Ien VGND.t108 sky130_fd_pr__nfet_01v8 ad=0.0725 pd=0.79 as=0.2304 ps=2.18 w=0.5 l=0.15
X121 XA.XIR[7].XIC[8].icell.PUM XThC.Tn[8].t12 XA.XIR[7].XIC[8].icell.Ien VPWR.t12 sky130_fd_pr__pfet_01v8 ad=0.0675 pd=0.77 as=0.0725 ps=0.79 w=0.5 l=0.15
X122 XThC.Tn[9].t7 XThC.XTB2.Y VPWR.t1385 VPWR.t127 sky130_fd_pr__pfet_01v8_hvt ad=0.135 pd=1.27 as=0.135 ps=1.27 w=1 l=0.15
X123 XA.XIR[15].XIC[4].icell.Ien VPWR.t1765 VPWR.t1767 VPWR.t1766 sky130_fd_pr__pfet_01v8 ad=0.0725 pd=0.79 as=0.15 ps=1.6 w=0.5 l=0.15
X124 VGND.t1423 Vbias.t20 XA.XIR[12].XIC[2].icell.SM VGND.t1422 sky130_fd_pr__nfet_g5v0d10v5 ad=0.175 pd=1.7 as=0.0625 ps=0.75 w=0.5 l=0.5
X125 XA.XIR[6].XIC[4].icell.SM XA.XIR[6].XIC[4].icell.Ien Iout.t22 VGND.t78 sky130_fd_pr__nfet_g5v0d10v5 ad=0.0625 pd=0.75 as=0.175 ps=1.7 w=0.5 l=0.5
X126 VGND.t1425 Vbias.t21 XA.XIR[11].XIC_15.icell.SM VGND.t1424 sky130_fd_pr__nfet_g5v0d10v5 ad=0.175 pd=1.7 as=0.0625 ps=0.75 w=0.5 l=0.5
X127 XA.XIR[10].XIC_dummy_right.icell.Ien VPWR.t1762 VPWR.t1764 VPWR.t1763 sky130_fd_pr__pfet_01v8 ad=0.0725 pd=0.79 as=0.15 ps=1.6 w=0.5 l=0.15
X128 XThC.Tn[5].t10 XThC.XTBN.Y.t11 VGND.t2242 VGND.t1009 sky130_fd_pr__nfet_01v8 ad=0.08775 pd=0.92 as=0.08775 ps=0.92 w=0.65 l=0.15
X129 XA.XIR[1].XIC_dummy_right.icell.SM XA.XIR[1].XIC_dummy_right.icell.Ien XA.XIR[1].XIC_dummy_right.icell.Iout VGND.t676 sky130_fd_pr__nfet_g5v0d10v5 ad=0.0625 pd=0.75 as=0.175 ps=1.7 w=0.5 l=0.5
X130 VGND.t1427 Vbias.t22 XA.XIR[15].XIC[3].icell.SM VGND.t1426 sky130_fd_pr__nfet_g5v0d10v5 ad=0.175 pd=1.7 as=0.0625 ps=0.75 w=0.5 l=0.5
X131 VGND.t1429 Vbias.t23 XA.XIR[14].XIC[4].icell.SM VGND.t1428 sky130_fd_pr__nfet_g5v0d10v5 ad=0.175 pd=1.7 as=0.0625 ps=0.75 w=0.5 l=0.5
X132 VGND.t576 XThC.Tn[6].t14 XA.XIR[6].XIC[6].icell.PDM VGND.t575 sky130_fd_pr__nfet_01v8 ad=0.0725 pd=0.79 as=0.0725 ps=0.79 w=0.5 l=0.15
X133 VPWR.t83 XThR.Tn[8].t16 XA.XIR[9].XIC[4].icell.PUM VPWR.t82 sky130_fd_pr__pfet_01v8 ad=0.135 pd=1.54 as=0.0675 ps=0.77 w=0.5 l=0.15
X134 VPWR.t872 XThR.Tn[12].t15 XA.XIR[13].XIC[12].icell.PUM VPWR.t871 sky130_fd_pr__pfet_01v8 ad=0.135 pd=1.54 as=0.0675 ps=0.77 w=0.5 l=0.15
X135 VGND.t1237 VGND.t1235 XA.XIR[13].XIC_dummy_right.icell.SM VGND.t1236 sky130_fd_pr__nfet_g5v0d10v5 ad=0.175 pd=1.7 as=0.0625 ps=0.75 w=0.5 l=0.5
X136 XThR.Tn[9].t11 XThR.XTB2.Y a_n997_3755# VGND.t159 sky130_fd_pr__nfet_01v8 ad=0.08775 pd=0.92 as=0.169 ps=1.82 w=0.65 l=0.15
X137 XThC.Tn[0].t6 XThC.XTBN.Y.t12 a_2979_9615# VPWR.t932 sky130_fd_pr__pfet_01v8_hvt ad=0.135 pd=1.27 as=0.135 ps=1.27 w=1 l=0.15
X138 XA.XIR[4].XIC_dummy_left.icell.PDM VPWR.t1937 VGND.t1600 VGND.t1599 sky130_fd_pr__nfet_01v8 ad=0.1312 pd=1.54 as=0.0725 ps=0.79 w=0.5 l=0.15
X139 XThC.Tn[5].t6 XThC.XTBN.Y.t13 a_5949_9615# VPWR.t490 sky130_fd_pr__pfet_01v8_hvt ad=0.135 pd=1.27 as=0.27 ps=2.54 w=1 l=0.15
X140 VGND.t1725 XThC.XTB5.Y XThC.Tn[4].t2 VGND.t1013 sky130_fd_pr__nfet_01v8 ad=0.08775 pd=0.92 as=0.08775 ps=0.92 w=0.65 l=0.15
X141 XA.XIR[14].XIC[1].icell.PUM XThC.Tn[1].t14 XA.XIR[14].XIC[1].icell.Ien VPWR.t1257 sky130_fd_pr__pfet_01v8 ad=0.0675 pd=0.77 as=0.0725 ps=0.79 w=0.5 l=0.15
X142 VGND.t1632 Vbias.t24 XA.XIR[9].XIC[2].icell.SM VGND.t1631 sky130_fd_pr__nfet_g5v0d10v5 ad=0.175 pd=1.7 as=0.0625 ps=0.75 w=0.5 l=0.5
X143 a_9827_9569# XThC.XTB5.Y XThC.Tn[12].t3 VGND.t669 sky130_fd_pr__nfet_01v8 ad=0.169 pd=1.82 as=0.08775 ps=0.92 w=0.65 l=0.15
X144 XA.XIR[13].XIC[0].icell.PUM XThC.Tn[0].t12 XA.XIR[13].XIC[0].icell.Ien VPWR.t1154 sky130_fd_pr__pfet_01v8 ad=0.0675 pd=0.77 as=0.0725 ps=0.79 w=0.5 l=0.15
X145 XThC.Tn[7].t3 XThC.XTBN.Y.t14 VGND.t1495 VGND.t1494 sky130_fd_pr__nfet_01v8 ad=0.08775 pd=0.92 as=0.169 ps=1.82 w=0.65 l=0.15
X146 XThC.Tn[2].t10 XThC.XTBN.Y.t15 VGND.t1496 VGND.t667 sky130_fd_pr__nfet_01v8 ad=0.08775 pd=0.92 as=0.169 ps=1.82 w=0.65 l=0.15
X147 VGND.t2292 XThC.Tn[10].t13 XA.XIR[0].XIC[10].icell.PDM VGND.t2291 sky130_fd_pr__nfet_01v8 ad=0.0725 pd=0.79 as=0.0725 ps=0.79 w=0.5 l=0.15
X148 a_n997_1579# XThR.XTBN.Y.t10 VGND.t947 VGND.t542 sky130_fd_pr__nfet_01v8 ad=0.08775 pd=0.92 as=0.08775 ps=0.92 w=0.65 l=0.15
X149 XA.XIR[6].XIC[14].icell.PDM XThR.Tn[5].t13 VGND.t88 VGND.t87 sky130_fd_pr__nfet_01v8 ad=0.1312 pd=1.54 as=0.0725 ps=0.79 w=0.5 l=0.15
X150 XA.XIR[6].XIC[8].icell.PDM XThR.Tn[5].t14 VGND.t90 VGND.t89 sky130_fd_pr__nfet_01v8 ad=0.1312 pd=1.54 as=0.0725 ps=0.79 w=0.5 l=0.15
X151 XA.XIR[10].XIC_dummy_left.icell.PUM VPWR.t1760 XA.XIR[10].XIC_dummy_left.icell.Ien VPWR.t1761 sky130_fd_pr__pfet_01v8 ad=0.0675 pd=0.77 as=0.0725 ps=0.79 w=0.5 l=0.15
X152 XA.XIR[9].XIC[14].icell.SM XA.XIR[9].XIC[14].icell.Ien Iout.t104 VGND.t843 sky130_fd_pr__nfet_g5v0d10v5 ad=0.0625 pd=0.75 as=0.175 ps=1.7 w=0.5 l=0.5
X153 VGND.t2505 XThC.Tn[4].t14 XA.XIR[14].XIC[4].icell.PDM VGND.t2504 sky130_fd_pr__nfet_01v8 ad=0.0725 pd=0.79 as=0.0725 ps=0.79 w=0.5 l=0.15
X154 XA.XIR[8].XIC[6].icell.PDM XThR.Tn[8].t17 XA.XIR[8].XIC[6].icell.Ien VGND.t163 sky130_fd_pr__nfet_01v8 ad=0.0725 pd=0.79 as=0.2304 ps=2.18 w=0.5 l=0.15
X155 XA.XIR[1].XIC[7].icell.PUM XThC.Tn[7].t9 XA.XIR[1].XIC[7].icell.Ien VPWR.t454 sky130_fd_pr__pfet_01v8 ad=0.0675 pd=0.77 as=0.0725 ps=0.79 w=0.5 l=0.15
X156 XA.XIR[7].XIC[1].icell.PDM XThR.Tn[6].t16 VGND.t378 VGND.t377 sky130_fd_pr__nfet_01v8 ad=0.1312 pd=1.54 as=0.0725 ps=0.79 w=0.5 l=0.15
X157 XA.XIR[2].XIC[5].icell.PDM XThR.Tn[1].t16 VGND.t1585 VGND.t1584 sky130_fd_pr__nfet_01v8 ad=0.1312 pd=1.54 as=0.0725 ps=0.79 w=0.5 l=0.15
X158 XA.XIR[11].XIC[7].icell.PDM XThR.Tn[11].t16 XA.XIR[11].XIC[7].icell.Ien VGND.t109 sky130_fd_pr__nfet_01v8 ad=0.0725 pd=0.79 as=0.2304 ps=2.18 w=0.5 l=0.15
X159 XA.XIR[4].XIC[8].icell.PUM XThC.Tn[8].t13 XA.XIR[4].XIC[8].icell.Ien VPWR.t13 sky130_fd_pr__pfet_01v8 ad=0.0675 pd=0.77 as=0.0725 ps=0.79 w=0.5 l=0.15
X160 XA.XIR[9].XIC[3].icell.PDM XThR.Tn[8].t18 VGND.t165 VGND.t164 sky130_fd_pr__nfet_01v8 ad=0.1312 pd=1.54 as=0.0725 ps=0.79 w=0.5 l=0.15
X161 XA.XIR[0].XIC_15.icell.SM XA.XIR[0].XIC_15.icell.Ien Iout.t168 VGND.t1537 sky130_fd_pr__nfet_g5v0d10v5 ad=0.0625 pd=0.75 as=0.175 ps=1.7 w=0.5 l=0.5
X162 XA.XIR[4].XIC[12].icell.SM XA.XIR[4].XIC[12].icell.Ien Iout.t224 VGND.t2288 sky130_fd_pr__nfet_g5v0d10v5 ad=0.0625 pd=0.75 as=0.175 ps=1.7 w=0.5 l=0.5
X163 XA.XIR[14].XIC[9].icell.PDM XThR.Tn[13].t13 VGND.t12 VGND.t11 sky130_fd_pr__nfet_01v8 ad=0.1312 pd=1.54 as=0.0725 ps=0.79 w=0.5 l=0.15
X164 XA.XIR[11].XIC[12].icell.PUM XThC.Tn[12].t13 XA.XIR[11].XIC[12].icell.Ien VPWR.t1251 sky130_fd_pr__pfet_01v8 ad=0.0675 pd=0.77 as=0.0725 ps=0.79 w=0.5 l=0.15
X165 XA.XIR[12].XIC[4].icell.Ien XThR.Tn[12].t16 VPWR.t874 VPWR.t873 sky130_fd_pr__pfet_01v8 ad=0.0725 pd=0.79 as=0.15 ps=1.6 w=0.5 l=0.15
X166 XA.XIR[3].XIC[4].icell.SM XA.XIR[3].XIC[4].icell.Ien Iout.t183 VGND.t1656 sky130_fd_pr__nfet_g5v0d10v5 ad=0.0625 pd=0.75 as=0.175 ps=1.7 w=0.5 l=0.5
X167 XA.XIR[15].XIC[0].icell.Ien VPWR.t1757 VPWR.t1759 VPWR.t1758 sky130_fd_pr__pfet_01v8 ad=0.0725 pd=0.79 as=0.15 ps=1.6 w=0.5 l=0.15
X168 VGND.t1634 Vbias.t25 XA.XIR[8].XIC_15.icell.SM VGND.t1633 sky130_fd_pr__nfet_g5v0d10v5 ad=0.175 pd=1.7 as=0.0625 ps=0.75 w=0.5 l=0.5
X169 VGND.t105 XThC.Tn[14].t13 XA.XIR[8].XIC[14].icell.PDM VGND.t104 sky130_fd_pr__nfet_01v8 ad=0.0725 pd=0.79 as=0.0725 ps=0.79 w=0.5 l=0.15
X170 XA.XIR[7].XIC_dummy_right.icell.Ien VPWR.t1754 VPWR.t1756 VPWR.t1755 sky130_fd_pr__pfet_01v8 ad=0.0725 pd=0.79 as=0.15 ps=1.6 w=0.5 l=0.15
X171 XA.XIR[4].XIC[0].icell.PDM XThR.Tn[4].t16 XA.XIR[4].XIC[0].icell.Ien VGND.t1996 sky130_fd_pr__nfet_01v8 ad=0.0725 pd=0.79 as=0.2304 ps=2.18 w=0.5 l=0.15
X172 VGND.t23 XThC.Tn[8].t14 XA.XIR[8].XIC[8].icell.PDM VGND.t22 sky130_fd_pr__nfet_01v8 ad=0.0725 pd=0.79 as=0.0725 ps=0.79 w=0.5 l=0.15
X173 XA.XIR[14].XIC[14].icell.Ien XThR.Tn[14].t13 VPWR.t1058 VPWR.t1057 sky130_fd_pr__pfet_01v8 ad=0.0725 pd=0.79 as=0.15 ps=1.6 w=0.5 l=0.15
X174 VGND.t1497 XThC.XTBN.Y.t16 XThC.Tn[1].t11 VGND.t1011 sky130_fd_pr__nfet_01v8 ad=0.08775 pd=0.92 as=0.08775 ps=0.92 w=0.65 l=0.15
X175 VGND.t1636 Vbias.t26 XA.XIR[1].XIC[5].icell.SM VGND.t1635 sky130_fd_pr__nfet_g5v0d10v5 ad=0.175 pd=1.7 as=0.0625 ps=0.75 w=0.5 l=0.5
X176 VPWR.t876 XThR.Tn[12].t17 XA.XIR[13].XIC[10].icell.PUM VPWR.t875 sky130_fd_pr__pfet_01v8 ad=0.135 pd=1.54 as=0.0675 ps=0.77 w=0.5 l=0.15
X177 XA.XIR[7].XIC[3].icell.PUM XThC.Tn[3].t13 XA.XIR[7].XIC[3].icell.Ien VPWR.t831 sky130_fd_pr__pfet_01v8 ad=0.0675 pd=0.77 as=0.0725 ps=0.79 w=0.5 l=0.15
X178 XA.XIR[2].XIC_15.icell.PUM VPWR.t1752 XA.XIR[2].XIC_15.icell.Ien VPWR.t1753 sky130_fd_pr__pfet_01v8 ad=0.0675 pd=0.77 as=0.0725 ps=0.79 w=0.5 l=0.15
X179 XA.XIR[2].XIC[13].icell.PDM XThR.Tn[2].t15 XA.XIR[2].XIC[13].icell.Ien VGND.t941 sky130_fd_pr__nfet_01v8 ad=0.0725 pd=0.79 as=0.2304 ps=2.18 w=0.5 l=0.15
X180 VPWR.t390 XThR.Tn[9].t15 XA.XIR[10].XIC[12].icell.PUM VPWR.t389 sky130_fd_pr__pfet_01v8 ad=0.135 pd=1.54 as=0.0675 ps=0.77 w=0.5 l=0.15
X181 VPWR.t85 XThR.Tn[8].t19 XA.XIR[9].XIC[0].icell.PUM VPWR.t84 sky130_fd_pr__pfet_01v8 ad=0.135 pd=1.54 as=0.0675 ps=0.77 w=0.5 l=0.15
X182 VGND.t1638 Vbias.t27 XA.XIR[4].XIC[6].icell.SM VGND.t1637 sky130_fd_pr__nfet_g5v0d10v5 ad=0.175 pd=1.7 as=0.0625 ps=0.75 w=0.5 l=0.5
X183 XA.XIR[1].XIC_dummy_left.icell.PDM VPWR.t1938 VGND.t1602 VGND.t1601 sky130_fd_pr__nfet_01v8 ad=0.1312 pd=1.54 as=0.0725 ps=0.79 w=0.5 l=0.15
X184 VPWR.t1751 VPWR.t1749 XA.XIR[6].XIC_dummy_left.icell.PUM VPWR.t1750 sky130_fd_pr__pfet_01v8 ad=0.135 pd=1.54 as=0.0675 ps=0.77 w=0.5 l=0.15
X185 VPWR.t933 XThC.XTBN.Y.t17 XThC.Tn[10].t10 VPWR.t259 sky130_fd_pr__pfet_01v8_hvt ad=0.135 pd=1.27 as=0.135 ps=1.27 w=1 l=0.15
X186 VGND.t949 XThR.XTBN.Y.t11 XThR.Tn[3].t11 VGND.t948 sky130_fd_pr__nfet_01v8 ad=0.169 pd=1.82 as=0.08775 ps=0.92 w=0.65 l=0.15
X187 XA.XIR[3].XIC[11].icell.PDM XThR.Tn[2].t16 VGND.t940 VGND.t939 sky130_fd_pr__nfet_01v8 ad=0.1312 pd=1.54 as=0.0725 ps=0.79 w=0.5 l=0.15
X188 XA.XIR[6].XIC[8].icell.Ien XThR.Tn[6].t17 VPWR.t241 VPWR.t240 sky130_fd_pr__pfet_01v8 ad=0.0725 pd=0.79 as=0.15 ps=1.6 w=0.5 l=0.15
X189 XThR.Tn[0].t11 XThR.XTBN.Y.t12 a_n1049_8581# VPWR.t652 sky130_fd_pr__pfet_01v8_hvt ad=0.135 pd=1.27 as=0.135 ps=1.27 w=1 l=0.15
X190 XA.XIR[13].XIC[12].icell.Ien XThR.Tn[13].t14 VPWR.t7 VPWR.t6 sky130_fd_pr__pfet_01v8 ad=0.0725 pd=0.79 as=0.15 ps=1.6 w=0.5 l=0.15
X191 XA.XIR[13].XIC[7].icell.SM XA.XIR[13].XIC[7].icell.Ien Iout.t232 VGND.t2331 sky130_fd_pr__nfet_g5v0d10v5 ad=0.0625 pd=0.75 as=0.175 ps=1.7 w=0.5 l=0.5
X192 VPWR.t780 VGND.t2689 XA.XIR[0].XIC[8].icell.PUM VPWR.t779 sky130_fd_pr__pfet_01v8 ad=0.135 pd=1.54 as=0.0675 ps=0.77 w=0.5 l=0.15
X193 XA.XIR[10].XIC[14].icell.PDM XThR.Tn[10].t13 XA.XIR[10].XIC[14].icell.Ien VGND.t970 sky130_fd_pr__nfet_01v8 ad=0.0725 pd=0.79 as=0.2304 ps=2.18 w=0.5 l=0.15
X194 XA.XIR[10].XIC[8].icell.PDM XThR.Tn[10].t14 XA.XIR[10].XIC[8].icell.Ien VGND.t971 sky130_fd_pr__nfet_01v8 ad=0.0725 pd=0.79 as=0.2304 ps=2.18 w=0.5 l=0.15
X195 XThC.Tn[12].t6 XThC.XTB5.Y VPWR.t1047 VPWR.t256 sky130_fd_pr__pfet_01v8_hvt ad=0.135 pd=1.27 as=0.135 ps=1.27 w=1 l=0.15
X196 XA.XIR[1].XIC[11].icell.PUM XThC.Tn[11].t14 XA.XIR[1].XIC[11].icell.Ien VPWR.t562 sky130_fd_pr__pfet_01v8 ad=0.0675 pd=0.77 as=0.0725 ps=0.79 w=0.5 l=0.15
X197 XThR.Tn[11].t11 XThR.XTBN.Y.t13 VPWR.t653 VPWR.t416 sky130_fd_pr__pfet_01v8_hvt ad=0.135 pd=1.27 as=0.135 ps=1.27 w=1 l=0.15
X198 XA.XIR[0].XIC[7].icell.Ien XThR.Tn[0].t14 VPWR.t247 VPWR.t246 sky130_fd_pr__pfet_01v8 ad=0.0725 pd=0.79 as=0.15 ps=1.6 w=0.5 l=0.15
X199 XA.XIR[3].XIC[2].icell.PDM XThR.Tn[2].t17 VGND.t938 VGND.t937 sky130_fd_pr__nfet_01v8 ad=0.1312 pd=1.54 as=0.0725 ps=0.79 w=0.5 l=0.15
X200 XA.XIR[8].XIC[9].icell.PUM XThC.Tn[9].t14 XA.XIR[8].XIC[9].icell.Ien VPWR.t1179 sky130_fd_pr__pfet_01v8 ad=0.0675 pd=0.77 as=0.0725 ps=0.79 w=0.5 l=0.15
X201 XA.XIR[9].XIC[7].icell.PDM XThR.Tn[8].t20 VGND.t167 VGND.t166 sky130_fd_pr__nfet_01v8 ad=0.1312 pd=1.54 as=0.0725 ps=0.79 w=0.5 l=0.15
X202 XA.XIR[1].XIC_dummy_left.icell.SM XA.XIR[1].XIC_dummy_left.icell.Ien XA.XIR[1].XIC_dummy_left.icell.Iout VGND.t1343 sky130_fd_pr__nfet_g5v0d10v5 ad=0.0625 pd=0.75 as=0.175 ps=1.7 w=0.5 l=0.5
X203 XA.XIR[6].XIC[3].icell.PDM XThR.Tn[5].t15 VGND.t92 VGND.t91 sky130_fd_pr__nfet_01v8 ad=0.1312 pd=1.54 as=0.0725 ps=0.79 w=0.5 l=0.15
X204 VGND.t774 XThC.Tn[11].t15 XA.XIR[5].XIC[11].icell.PDM VGND.t773 sky130_fd_pr__nfet_01v8 ad=0.0725 pd=0.79 as=0.0725 ps=0.79 w=0.5 l=0.15
X205 XA.XIR[11].XIC[10].icell.PUM XThC.Tn[10].t14 XA.XIR[11].XIC[10].icell.Ien VPWR.t1346 sky130_fd_pr__pfet_01v8 ad=0.0675 pd=0.77 as=0.0725 ps=0.79 w=0.5 l=0.15
X206 XThR.Tn[2].t4 XThR.XTBN.Y.t14 VGND.t950 VGND.t429 sky130_fd_pr__nfet_01v8 ad=0.08775 pd=0.92 as=0.08775 ps=0.92 w=0.65 l=0.15