* NGSPICE file created from csdac255_parax.ext - technology: sky130A

.subckt csdac255_parax Iout VPWR VGND Vbias data[0] data[1] data[2] data[3] data[4]
+ data[5] data[6] data[7] bias[0] bias[1] bias[2]
X0 XA.XIR[2].XIC_dummy_right.icell.SM XA.XIR[2].XIC_dummy_right.icell.Ien XA.XIR[2].XIC_dummy_right.icell.Iout VGND.t1876 sky130_fd_pr__nfet_g5v0d10v5 ad=0.0625 pd=0.75 as=0.175 ps=1.7 w=0.5 l=0.5
X1 VPWR.t1096 XThR.Tn[2].t12 XA.XIR[3].XIC[8].icell.PUM VPWR.t1095 sky130_fd_pr__pfet_01v8 ad=0.135 pd=1.54 as=0.0675 ps=0.77 w=0.5 l=0.15
X2 XA.XIR[12].XIC[10].icell.SM XA.XIR[12].XIC[10].icell.Ien Iout.t236 VGND.t2534 sky130_fd_pr__nfet_g5v0d10v5 ad=0.0625 pd=0.75 as=0.175 ps=1.7 w=0.5 l=0.5
X3 XA.XIR[11].XIC_dummy_right.icell.Ien VPWR.t1794 VPWR.t1796 VPWR.t1795 sky130_fd_pr__pfet_01v8 ad=0.0725 pd=0.79 as=0.15 ps=1.6 w=0.5 l=0.15
X4 VGND.t510 XThC.Tn[10].t12 XA.XIR[4].XIC[10].icell.PDM VGND.t509 sky130_fd_pr__nfet_01v8 ad=0.0725 pd=0.79 as=0.0725 ps=0.79 w=0.5 l=0.15
X5 VGND.t669 XThR.XTBN.Y.t4 a_n997_2667# VGND.t611 sky130_fd_pr__nfet_01v8 ad=0.08775 pd=0.92 as=0.08775 ps=0.92 w=0.65 l=0.15
X6 VPWR.t453 XThR.Tn[6].t12 XA.XIR[7].XIC[8].icell.PUM VPWR.t452 sky130_fd_pr__pfet_01v8 ad=0.135 pd=1.54 as=0.0675 ps=0.77 w=0.5 l=0.15
X7 XA.XIR[14].XIC[5].icell.Ien XThR.Tn[14].t12 VPWR.t13 VPWR.t12 sky130_fd_pr__pfet_01v8 ad=0.0725 pd=0.79 as=0.15 ps=1.6 w=0.5 l=0.15
X8 XA.XIR[12].XIC[6].icell.PDM XThR.Tn[12].t12 XA.XIR[12].XIC[6].icell.Ien VGND.t1792 sky130_fd_pr__nfet_01v8 ad=0.0725 pd=0.79 as=0.2304 ps=2.18 w=0.5 l=0.15
X9 XThC.Tn[6].t11 XThC.XTBN.Y.t4 VGND.t2275 VGND.t2274 sky130_fd_pr__nfet_01v8 ad=0.08775 pd=0.92 as=0.169 ps=1.82 w=0.65 l=0.15
X10 XA.XIR[5].XIC_dummy_left.icell.PDM VPWR.t1931 VGND.t682 VGND.t681 sky130_fd_pr__nfet_01v8 ad=0.1312 pd=1.54 as=0.0725 ps=0.79 w=0.5 l=0.15
X11 XA.XIR[10].XIC[2].icell.PDM XThR.Tn[9].t12 VGND.t29 VGND.t28 sky130_fd_pr__nfet_01v8 ad=0.1312 pd=1.54 as=0.0725 ps=0.79 w=0.5 l=0.15
X12 VGND.t2276 XThC.XTBN.Y.t5 XThC.Tn[5].t7 VGND.t1333 sky130_fd_pr__nfet_01v8 ad=0.08775 pd=0.92 as=0.08775 ps=0.92 w=0.65 l=0.15
X13 XA.XIR[15].XIC[9].icell.PUM XThC.Tn[9].t12 XA.XIR[15].XIC[9].icell.Ien VPWR.t804 sky130_fd_pr__pfet_01v8 ad=0.0675 pd=0.77 as=0.0725 ps=0.79 w=0.5 l=0.15
X14 XA.XIR[9].XIC[0].icell.SM XA.XIR[9].XIC[0].icell.Ien Iout.t245 VGND.t2607 sky130_fd_pr__nfet_g5v0d10v5 ad=0.0625 pd=0.75 as=0.175 ps=1.7 w=0.5 l=0.5
X15 XA.XIR[13].XIC[3].icell.PDM XThR.Tn[12].t13 VGND.t1794 VGND.t1793 sky130_fd_pr__nfet_01v8 ad=0.1312 pd=1.54 as=0.0725 ps=0.79 w=0.5 l=0.15
X16 VGND.t655 XThC.Tn[11].t12 XA.XIR[12].XIC[11].icell.PDM VGND.t654 sky130_fd_pr__nfet_01v8 ad=0.0725 pd=0.79 as=0.0725 ps=0.79 w=0.5 l=0.15
X17 XA.XIR[12].XIC[1].icell.SM XA.XIR[12].XIC[1].icell.Ien Iout.t221 VGND.t2206 sky130_fd_pr__nfet_g5v0d10v5 ad=0.0625 pd=0.75 as=0.175 ps=1.7 w=0.5 l=0.5
X18 XA.XIR[8].XIC[12].icell.SM XA.XIR[8].XIC[12].icell.Ien Iout.t106 VGND.t1154 sky130_fd_pr__nfet_g5v0d10v5 ad=0.0625 pd=0.75 as=0.175 ps=1.7 w=0.5 l=0.5
X19 XThC.Tn[12].t7 XThC.XTB5.Y VPWR.t167 VPWR.t160 sky130_fd_pr__pfet_01v8_hvt ad=0.135 pd=1.27 as=0.135 ps=1.27 w=1 l=0.15
X20 XA.XIR[8].XIC_15.icell.PDM VPWR.t1932 VGND.t684 VGND.t683 sky130_fd_pr__nfet_01v8 ad=0.1312 pd=1.54 as=0.0725 ps=0.79 w=0.5 l=0.15
X21 XA.XIR[7].XIC[13].icell.SM XA.XIR[7].XIC[13].icell.Ien Iout.t223 VGND.t2295 sky130_fd_pr__nfet_g5v0d10v5 ad=0.0625 pd=0.75 as=0.175 ps=1.7 w=0.5 l=0.5
X22 XA.XIR[14].XIC[13].icell.PUM XThC.Tn[13].t12 XA.XIR[14].XIC[13].icell.Ien VPWR.t170 sky130_fd_pr__pfet_01v8 ad=0.0675 pd=0.77 as=0.0725 ps=0.79 w=0.5 l=0.15
X23 a_2979_9615# XThC.XTBN.Y.t6 XThC.Tn[0].t6 VPWR.t1346 sky130_fd_pr__pfet_01v8_hvt ad=0.135 pd=1.27 as=0.135 ps=1.27 w=1 l=0.15
X24 XA.XIR[11].XIC_dummy_left.icell.PUM VPWR.t1792 XA.XIR[11].XIC_dummy_left.icell.Ien VPWR.t1793 sky130_fd_pr__pfet_01v8 ad=0.0675 pd=0.77 as=0.0725 ps=0.79 w=0.5 l=0.15
X25 XA.XIR[10].XIC[14].icell.SM XA.XIR[10].XIC[14].icell.Ien Iout.t51 VGND.t523 sky130_fd_pr__nfet_g5v0d10v5 ad=0.0625 pd=0.75 as=0.175 ps=1.7 w=0.5 l=0.5
X26 a_4861_9615# XThC.XTB4.Y.t2 VPWR.t208 VPWR.t207 sky130_fd_pr__pfet_01v8_hvt ad=0.135 pd=1.27 as=0.135 ps=1.27 w=1 l=0.15
X27 a_5949_9615# XThC.XTBN.Y.t7 XThC.Tn[5].t11 VPWR.t316 sky130_fd_pr__pfet_01v8_hvt ad=0.135 pd=1.27 as=0.135 ps=1.27 w=1 l=0.15
X28 XA.XIR[6].XIC[10].icell.PDM XThR.Tn[6].t13 XA.XIR[6].XIC[10].icell.Ien VGND.t662 sky130_fd_pr__nfet_01v8 ad=0.0725 pd=0.79 as=0.2304 ps=2.18 w=0.5 l=0.15
X29 XA.XIR[0].XIC[4].icell.PDM VGND.t1028 VGND.t1030 VGND.t1029 sky130_fd_pr__nfet_01v8 ad=0.1312 pd=1.54 as=0.0725 ps=0.79 w=0.5 l=0.15
X30 XA.XIR[4].XIC[12].icell.PDM XThR.Tn[3].t12 VGND.t1193 VGND.t1192 sky130_fd_pr__nfet_01v8 ad=0.1312 pd=1.54 as=0.0725 ps=0.79 w=0.5 l=0.15
X31 XThR.Tn[5].t7 XThR.XTBN.Y.t5 a_n1049_5611# VPWR.t464 sky130_fd_pr__pfet_01v8_hvt ad=0.135 pd=1.27 as=0.135 ps=1.27 w=1 l=0.15
X32 XThC.Tn[4].t3 XThC.XTB5.Y VGND.t291 VGND.t287 sky130_fd_pr__nfet_01v8 ad=0.08775 pd=0.92 as=0.08775 ps=0.92 w=0.65 l=0.15
X33 VGND.t2277 XThC.XTBN.Y.t8 XThC.Tn[2].t11 VGND.t100 sky130_fd_pr__nfet_01v8 ad=0.08775 pd=0.92 as=0.08775 ps=0.92 w=0.65 l=0.15
X34 XThR.XTB2.Y XThR.XTB6.A VPWR.t964 VPWR.t963 sky130_fd_pr__pfet_01v8_hvt ad=0.135 pd=1.27 as=0.26 ps=2.52 w=1 l=0.15
X35 XA.XIR[7].XIC[13].icell.PDM XThR.Tn[6].t14 VGND.t664 VGND.t663 sky130_fd_pr__nfet_01v8 ad=0.1312 pd=1.54 as=0.0725 ps=0.79 w=0.5 l=0.15
X36 XA.XIR[6].XIC[11].icell.SM XA.XIR[6].XIC[11].icell.Ien Iout.t25 VGND.t176 sky130_fd_pr__nfet_g5v0d10v5 ad=0.0625 pd=0.75 as=0.175 ps=1.7 w=0.5 l=0.5
X37 VGND.t2000 XThC.Tn[2].t12 XA.XIR[12].XIC[2].icell.PDM VGND.t1999 sky130_fd_pr__nfet_01v8 ad=0.0725 pd=0.79 as=0.0725 ps=0.79 w=0.5 l=0.15
X38 VPWR.t1791 VPWR.t1789 XA.XIR[10].XIC_dummy_left.icell.PUM VPWR.t1790 sky130_fd_pr__pfet_01v8 ad=0.135 pd=1.54 as=0.0675 ps=0.77 w=0.5 l=0.15
X39 VGND.t686 VPWR.t1933 XA.XIR[7].XIC_dummy_left.icell.PDM VGND.t685 sky130_fd_pr__nfet_01v8 ad=0.0725 pd=0.79 as=0.0725 ps=0.79 w=0.5 l=0.15
X40 VPWR.t686 XThR.Tn[3].t13 XA.XIR[4].XIC[11].icell.PUM VPWR.t685 sky130_fd_pr__pfet_01v8 ad=0.135 pd=1.54 as=0.0675 ps=0.77 w=0.5 l=0.15
X41 VGND.t1201 Vbias.t12 XA.XIR[14].XIC[11].icell.SM VGND.t1200 sky130_fd_pr__nfet_g5v0d10v5 ad=0.175 pd=1.7 as=0.0625 ps=0.75 w=0.5 l=0.5
X42 XA.XIR[2].XIC[1].icell.PUM XThC.Tn[1].t12 XA.XIR[2].XIC[1].icell.Ien VPWR.t883 sky130_fd_pr__pfet_01v8 ad=0.0675 pd=0.77 as=0.0725 ps=0.79 w=0.5 l=0.15
X43 VGND.t2558 XThC.Tn[3].t12 XA.XIR[15].XIC[3].icell.PDM VGND.t2557 sky130_fd_pr__nfet_01v8 ad=0.0725 pd=0.79 as=0.0725 ps=0.79 w=0.5 l=0.15
X44 VGND.t688 VPWR.t1934 XA.XIR[10].XIC_15.icell.PDM VGND.t687 sky130_fd_pr__nfet_01v8 ad=0.0725 pd=0.79 as=0.0725 ps=0.79 w=0.5 l=0.15
X45 VPWR.t533 XThR.Tn[10].t12 XA.XIR[11].XIC[9].icell.PUM VPWR.t532 sky130_fd_pr__pfet_01v8 ad=0.135 pd=1.54 as=0.0675 ps=0.77 w=0.5 l=0.15
X46 XA.XIR[0].XIC[14].icell.PUM XThC.Tn[14].t12 XA.XIR[0].XIC[14].icell.Ien VPWR.t1292 sky130_fd_pr__pfet_01v8 ad=0.0675 pd=0.77 as=0.0725 ps=0.79 w=0.5 l=0.15
X47 XA.XIR[13].XIC_dummy_left.icell.Ien VPWR.t1786 VPWR.t1788 VPWR.t1787 sky130_fd_pr__pfet_01v8 ad=0.0725 pd=0.79 as=0.15 ps=1.6 w=0.5 l=0.15
X48 a_7651_9569# XThC.XTB1.Y.t3 XThC.Tn[8].t3 VGND.t325 sky130_fd_pr__nfet_01v8 ad=0.08775 pd=0.92 as=0.08775 ps=0.92 w=0.65 l=0.15
X49 VGND.t1878 Vbias.t13 XA.XIR[2].XIC[5].icell.SM VGND.t1877 sky130_fd_pr__nfet_g5v0d10v5 ad=0.175 pd=1.7 as=0.0625 ps=0.75 w=0.5 l=0.5
X50 XA.XIR[1].XIC[6].icell.Ien XThR.Tn[1].t12 VPWR.t910 VPWR.t909 sky130_fd_pr__pfet_01v8 ad=0.0725 pd=0.79 as=0.15 ps=1.6 w=0.5 l=0.15
X51 a_10051_9569# XThC.XTB6.Y XThC.Tn[13].t3 VGND.t410 sky130_fd_pr__nfet_01v8 ad=0.169 pd=1.82 as=0.08775 ps=0.92 w=0.65 l=0.15
X52 VGND.t2250 XThC.Tn[4].t12 XA.XIR[2].XIC[4].icell.PDM VGND.t2249 sky130_fd_pr__nfet_01v8 ad=0.0725 pd=0.79 as=0.0725 ps=0.79 w=0.5 l=0.15
X53 XThC.XTB5.Y XThC.XTB7.B VGND.t1336 VGND.t287 sky130_fd_pr__nfet_01v8 ad=0.08775 pd=0.92 as=0.169 ps=1.82 w=0.65 l=0.15
X54 XThC.Tn[7].t7 XThC.XTBN.Y.t9 VPWR.t1348 VPWR.t1347 sky130_fd_pr__pfet_01v8_hvt ad=0.135 pd=1.27 as=0.26 ps=2.52 w=1 l=0.15
X55 XA.XIR[10].XIC[6].icell.PDM XThR.Tn[9].t13 VGND.t31 VGND.t30 sky130_fd_pr__nfet_01v8 ad=0.1312 pd=1.54 as=0.0725 ps=0.79 w=0.5 l=0.15
X56 VGND.t1752 XThR.XTB7.Y XThR.Tn[6].t11 VGND.t1751 sky130_fd_pr__nfet_01v8 ad=0.08775 pd=0.92 as=0.08775 ps=0.92 w=0.65 l=0.15
X57 XA.XIR[4].XIC[7].icell.Ien XThR.Tn[4].t12 VPWR.t1179 VPWR.t1178 sky130_fd_pr__pfet_01v8 ad=0.0725 pd=0.79 as=0.15 ps=1.6 w=0.5 l=0.15
X58 VPWR.t465 XThR.XTBN.Y.t6 XThR.Tn[9].t3 VPWR.t374 sky130_fd_pr__pfet_01v8_hvt ad=0.135 pd=1.27 as=0.135 ps=1.27 w=1 l=0.15
X59 XThR.XTB7.Y XThR.XTB7.A VGND.t2647 VGND.t2646 sky130_fd_pr__nfet_01v8 ad=0.08775 pd=0.92 as=0.169 ps=1.82 w=0.65 l=0.15
X60 XA.XIR[3].XIC[8].icell.Ien XThR.Tn[3].t14 VPWR.t688 VPWR.t687 sky130_fd_pr__pfet_01v8 ad=0.0725 pd=0.79 as=0.15 ps=1.6 w=0.5 l=0.15
X61 VPWR.t690 XThR.Tn[3].t15 XA.XIR[4].XIC[2].icell.PUM VPWR.t689 sky130_fd_pr__pfet_01v8 ad=0.135 pd=1.54 as=0.0675 ps=0.77 w=0.5 l=0.15
X62 XA.XIR[13].XIC[7].icell.PDM XThR.Tn[12].t14 VGND.t1796 VGND.t1795 sky130_fd_pr__nfet_01v8 ad=0.1312 pd=1.54 as=0.0725 ps=0.79 w=0.5 l=0.15
X63 XA.XIR[1].XIC[9].icell.PDM XThR.Tn[1].t13 XA.XIR[1].XIC[9].icell.Ien VGND.t1605 sky130_fd_pr__nfet_01v8 ad=0.0725 pd=0.79 as=0.2304 ps=2.18 w=0.5 l=0.15
X64 VPWR.t1094 XThR.Tn[2].t13 XA.XIR[3].XIC[3].icell.PUM VPWR.t1093 sky130_fd_pr__pfet_01v8 ad=0.135 pd=1.54 as=0.0675 ps=0.77 w=0.5 l=0.15
X65 XA.XIR[5].XIC_dummy_left.icell.SM XA.XIR[5].XIC_dummy_left.icell.Ien XA.XIR[5].XIC_dummy_left.icell.Iout VGND.t869 sky130_fd_pr__nfet_g5v0d10v5 ad=0.0625 pd=0.75 as=0.175 ps=1.7 w=0.5 l=0.5
X66 VPWR.t455 XThR.Tn[6].t15 XA.XIR[7].XIC[3].icell.PUM VPWR.t454 sky130_fd_pr__pfet_01v8 ad=0.135 pd=1.54 as=0.0675 ps=0.77 w=0.5 l=0.15
X67 VPWR.t1785 VPWR.t1783 XA.XIR[2].XIC_15.icell.PUM VPWR.t1784 sky130_fd_pr__pfet_01v8 ad=0.135 pd=1.54 as=0.0675 ps=0.77 w=0.5 l=0.15
X68 a_6243_9615# XThC.XTB7.Y VPWR.t119 VPWR.t114 sky130_fd_pr__pfet_01v8_hvt ad=0.28 pd=2.56 as=0.135 ps=1.27 w=1 l=0.15
X69 XA.XIR[11].XIC[14].icell.PDM XThR.Tn[11].t12 XA.XIR[11].XIC[14].icell.Ien VGND.t1973 sky130_fd_pr__nfet_01v8 ad=0.0725 pd=0.79 as=0.2304 ps=2.18 w=0.5 l=0.15
X70 XA.XIR[11].XIC[8].icell.PDM XThR.Tn[11].t13 XA.XIR[11].XIC[8].icell.Ien VGND.t1974 sky130_fd_pr__nfet_01v8 ad=0.0725 pd=0.79 as=0.2304 ps=2.18 w=0.5 l=0.15
X71 XA.XIR[4].XIC[10].icell.PDM XThR.Tn[3].t16 VGND.t1195 VGND.t1194 sky130_fd_pr__nfet_01v8 ad=0.1312 pd=1.54 as=0.0725 ps=0.79 w=0.5 l=0.15
X72 XThR.Tn[7].t7 XThR.XTBN.Y.t7 VPWR.t467 VPWR.t466 sky130_fd_pr__pfet_01v8_hvt ad=0.135 pd=1.27 as=0.26 ps=2.52 w=1 l=0.15
X73 XA.XIR[1].XIC[12].icell.PDM XThR.Tn[0].t12 VGND.t1122 VGND.t1121 sky130_fd_pr__nfet_01v8 ad=0.1312 pd=1.54 as=0.0725 ps=0.79 w=0.5 l=0.15
X74 a_8963_9569# XThC.XTBN.Y.t10 VGND.t2278 VGND.t328 sky130_fd_pr__nfet_01v8 ad=0.08775 pd=0.92 as=0.08775 ps=0.92 w=0.65 l=0.15
X75 VGND.t1880 Vbias.t14 XA.XIR[12].XIC[7].icell.SM VGND.t1879 sky130_fd_pr__nfet_g5v0d10v5 ad=0.175 pd=1.7 as=0.0625 ps=0.75 w=0.5 l=0.5
X76 VGND.t653 XThC.Tn[6].t12 XA.XIR[12].XIC[6].icell.PDM VGND.t652 sky130_fd_pr__nfet_01v8 ad=0.0725 pd=0.79 as=0.0725 ps=0.79 w=0.5 l=0.15
X77 XA.XIR[6].XIC[9].icell.SM XA.XIR[6].XIC[9].icell.Ien Iout.t162 VGND.t1590 sky130_fd_pr__nfet_g5v0d10v5 ad=0.0625 pd=0.75 as=0.175 ps=1.7 w=0.5 l=0.5
X78 XA.XIR[2].XIC_dummy_left.icell.SM XA.XIR[2].XIC_dummy_left.icell.Ien XA.XIR[2].XIC_dummy_left.icell.Iout VGND.t1403 sky130_fd_pr__nfet_g5v0d10v5 ad=0.0625 pd=0.75 as=0.175 ps=1.7 w=0.5 l=0.5
X79 XA.XIR[3].XIC[11].icell.SM XA.XIR[3].XIC[11].icell.Ien Iout.t113 VGND.t1279 sky130_fd_pr__nfet_g5v0d10v5 ad=0.0625 pd=0.75 as=0.175 ps=1.7 w=0.5 l=0.5
X80 VGND.t690 VPWR.t1935 XA.XIR[4].XIC_dummy_left.icell.PDM VGND.t689 sky130_fd_pr__nfet_01v8 ad=0.0725 pd=0.79 as=0.0725 ps=0.79 w=0.5 l=0.15
X81 VGND.t670 XThR.XTBN.Y.t8 XThR.Tn[5].t11 VGND.t545 sky130_fd_pr__nfet_01v8 ad=0.169 pd=1.82 as=0.08775 ps=0.92 w=0.65 l=0.15
X82 VGND.t1882 Vbias.t15 XA.XIR[15].XIC[8].icell.SM VGND.t1881 sky130_fd_pr__nfet_g5v0d10v5 ad=0.175 pd=1.7 as=0.0625 ps=0.75 w=0.5 l=0.5
X83 VGND.t1884 Vbias.t16 XA.XIR[14].XIC[9].icell.SM VGND.t1883 sky130_fd_pr__nfet_g5v0d10v5 ad=0.175 pd=1.7 as=0.0625 ps=0.75 w=0.5 l=0.5
X84 VGND.t2134 XThC.Tn[7].t8 XA.XIR[15].XIC[7].icell.PDM VGND.t2133 sky130_fd_pr__nfet_01v8 ad=0.0725 pd=0.79 as=0.0725 ps=0.79 w=0.5 l=0.15
X85 VGND.t657 XThC.Tn[11].t13 XA.XIR[6].XIC[11].icell.PDM VGND.t656 sky130_fd_pr__nfet_01v8 ad=0.0725 pd=0.79 as=0.0725 ps=0.79 w=0.5 l=0.15
X86 VGND.t1593 XThC.Tn[1].t13 XA.XIR[3].XIC[1].icell.PDM VGND.t1592 sky130_fd_pr__nfet_01v8 ad=0.0725 pd=0.79 as=0.0725 ps=0.79 w=0.5 l=0.15
X87 XA.XIR[4].XIC[11].icell.Ien XThR.Tn[4].t13 VPWR.t1181 VPWR.t1180 sky130_fd_pr__pfet_01v8 ad=0.0725 pd=0.79 as=0.15 ps=1.6 w=0.5 l=0.15
X88 VPWR.t135 XThR.XTB6.Y a_n1049_5611# VPWR.t134 sky130_fd_pr__pfet_01v8_hvt ad=0.135 pd=1.27 as=0.28 ps=2.56 w=1 l=0.15
X89 XA.XIR[14].XIC[6].icell.PUM XThC.Tn[6].t13 XA.XIR[14].XIC[6].icell.Ien VPWR.t431 sky130_fd_pr__pfet_01v8 ad=0.0675 pd=0.77 as=0.0725 ps=0.79 w=0.5 l=0.15
X90 VGND.t1886 Vbias.t17 XA.XIR[9].XIC[7].icell.SM VGND.t1885 sky130_fd_pr__nfet_g5v0d10v5 ad=0.175 pd=1.7 as=0.0625 ps=0.75 w=0.5 l=0.5
X91 VGND.t2002 XThC.Tn[2].t13 XA.XIR[6].XIC[2].icell.PDM VGND.t2001 sky130_fd_pr__nfet_01v8 ad=0.0725 pd=0.79 as=0.0725 ps=0.79 w=0.5 l=0.15
X92 XA.XIR[11].XIC[9].icell.Ien XThR.Tn[11].t14 VPWR.t1162 VPWR.t1161 sky130_fd_pr__pfet_01v8 ad=0.0725 pd=0.79 as=0.15 ps=1.6 w=0.5 l=0.15
X93 XA.XIR[6].XIC_dummy_left.icell.PDM VPWR.t1936 XA.XIR[6].XIC_dummy_left.icell.Ien VGND.t691 sky130_fd_pr__nfet_01v8 ad=0.0725 pd=0.79 as=0.2304 ps=2.18 w=0.5 l=0.15
X94 a_n1049_7787# XThR.XTB2.Y VPWR.t1177 VPWR.t1176 sky130_fd_pr__pfet_01v8_hvt ad=0.135 pd=1.27 as=0.135 ps=1.27 w=1 l=0.15
X95 VGND.t1467 XThC.Tn[9].t13 XA.XIR[14].XIC[9].icell.PDM VGND.t1466 sky130_fd_pr__nfet_01v8 ad=0.0725 pd=0.79 as=0.0725 ps=0.79 w=0.5 l=0.15
X96 XA.XIR[8].XIC[11].icell.PDM XThR.Tn[8].t12 XA.XIR[8].XIC[11].icell.Ien VGND.t1460 sky130_fd_pr__nfet_01v8 ad=0.0725 pd=0.79 as=0.2304 ps=2.18 w=0.5 l=0.15
X97 VGND.t1888 Vbias.t18 XA.XIR[2].XIC[0].icell.SM VGND.t1887 sky130_fd_pr__nfet_g5v0d10v5 ad=0.175 pd=1.7 as=0.0625 ps=0.75 w=0.5 l=0.5
X98 XA.XIR[1].XIC[1].icell.Ien XThR.Tn[1].t14 VPWR.t1335 VPWR.t1334 sky130_fd_pr__pfet_01v8 ad=0.0725 pd=0.79 as=0.15 ps=1.6 w=0.5 l=0.15
X99 XA.XIR[13].XIC[4].icell.PUM XThC.Tn[4].t13 XA.XIR[13].XIC[4].icell.Ien VPWR.t1329 sky130_fd_pr__pfet_01v8 ad=0.0675 pd=0.77 as=0.0725 ps=0.79 w=0.5 l=0.15
X100 XA.XIR[8].XIC_dummy_right.icell.PUM VPWR.t1781 XA.XIR[8].XIC_dummy_right.icell.Ien VPWR.t1782 sky130_fd_pr__pfet_01v8 ad=0.0675 pd=0.77 as=0.0725 ps=0.79 w=0.5 l=0.15
X101 VGND.t1890 Vbias.t19 XA.XIR[0].XIC[13].icell.SM VGND.t1889 sky130_fd_pr__nfet_g5v0d10v5 ad=0.175 pd=1.7 as=0.0625 ps=0.75 w=0.5 l=0.5
X102 XA.XIR[1].XIC[10].icell.PDM XThR.Tn[0].t13 VGND.t1124 VGND.t1123 sky130_fd_pr__nfet_01v8 ad=0.1312 pd=1.54 as=0.0725 ps=0.79 w=0.5 l=0.15
X103 XA.XIR[4].XIC[2].icell.Ien XThR.Tn[4].t14 VPWR.t1183 VPWR.t1182 sky130_fd_pr__pfet_01v8 ad=0.0725 pd=0.79 as=0.15 ps=1.6 w=0.5 l=0.15
X104 XA.XIR[9].XIC[14].icell.PDM XThR.Tn[8].t13 VGND.t1462 VGND.t1461 sky130_fd_pr__nfet_01v8 ad=0.1312 pd=1.54 as=0.0725 ps=0.79 w=0.5 l=0.15
X105 XA.XIR[9].XIC[8].icell.PDM XThR.Tn[8].t14 VGND.t1464 VGND.t1463 sky130_fd_pr__nfet_01v8 ad=0.1312 pd=1.54 as=0.0725 ps=0.79 w=0.5 l=0.15
X106 XA.XIR[3].XIC[3].icell.Ien XThR.Tn[3].t17 VPWR.t692 VPWR.t691 sky130_fd_pr__pfet_01v8 ad=0.0725 pd=0.79 as=0.15 ps=1.6 w=0.5 l=0.15
X107 VGND.t2670 XThC.Tn[12].t12 XA.XIR[0].XIC[12].icell.PDM VGND.t2669 sky130_fd_pr__nfet_01v8 ad=0.0725 pd=0.79 as=0.0725 ps=0.79 w=0.5 l=0.15
X108 VPWR.t29 XThC.XTB3.Y.t3 a_4067_9615# VPWR.t28 sky130_fd_pr__pfet_01v8_hvt ad=0.135 pd=1.27 as=0.135 ps=1.27 w=1 l=0.15
X109 XA.XIR[1].XIC[4].icell.PDM XThR.Tn[1].t15 XA.XIR[1].XIC[4].icell.Ien VGND.t2255 sky130_fd_pr__nfet_01v8 ad=0.0725 pd=0.79 as=0.2304 ps=2.18 w=0.5 l=0.15
X110 XA.XIR[5].XIC[1].icell.PDM XThR.Tn[5].t12 XA.XIR[5].XIC[1].icell.Ien VGND.t124 sky130_fd_pr__nfet_01v8 ad=0.0725 pd=0.79 as=0.2304 ps=2.18 w=0.5 l=0.15
X111 VPWR.t99 data[4].t0 a_n1335_4229# VPWR.t98 sky130_fd_pr__pfet_01v8_hvt ad=0.26 pd=2.52 as=0.105 ps=1.21 w=1 l=0.15
X112 XA.XIR[2].XIC_15.icell.Ien XThR.Tn[2].t14 VPWR.t1092 VPWR.t1091 sky130_fd_pr__pfet_01v8 ad=0.0725 pd=0.79 as=0.15 ps=1.6 w=0.5 l=0.15
X113 XA.XIR[3].XIC[9].icell.SM XA.XIR[3].XIC[9].icell.Ien Iout.t181 VGND.t1705 sky130_fd_pr__nfet_g5v0d10v5 ad=0.0625 pd=0.75 as=0.175 ps=1.7 w=0.5 l=0.5
X114 XA.XIR[9].XIC[1].icell.PDM XThR.Tn[9].t14 XA.XIR[9].XIC[1].icell.Ien VGND.t32 sky130_fd_pr__nfet_01v8 ad=0.0725 pd=0.79 as=0.2304 ps=2.18 w=0.5 l=0.15
X115 VGND.t672 XThR.XTBN.Y.t9 XThR.Tn[7].t3 VGND.t671 sky130_fd_pr__nfet_01v8 ad=0.08775 pd=0.92 as=0.08775 ps=0.92 w=0.65 l=0.15
X116 XA.XIR[4].XIC[5].icell.PDM XThR.Tn[4].t15 XA.XIR[4].XIC[5].icell.Ien VGND.t1989 sky130_fd_pr__nfet_01v8 ad=0.0725 pd=0.79 as=0.2304 ps=2.18 w=0.5 l=0.15
X117 a_n1319_5317# XThR.XTB7.A VPWR.t1890 VPWR.t961 sky130_fd_pr__pfet_01v8_hvt ad=0.105 pd=1.21 as=0.26 ps=2.52 w=1 l=0.15
X118 XA.XIR[8].XIC[2].icell.PDM XThR.Tn[8].t15 XA.XIR[8].XIC[2].icell.Ien VGND.t1155 sky130_fd_pr__nfet_01v8 ad=0.0725 pd=0.79 as=0.2304 ps=2.18 w=0.5 l=0.15
X119 VPWR.t635 XThR.Tn[13].t12 XA.XIR[14].XIC[14].icell.PUM VPWR.t634 sky130_fd_pr__pfet_01v8 ad=0.135 pd=1.54 as=0.0675 ps=0.77 w=0.5 l=0.15
X120 XA.XIR[11].XIC[3].icell.PDM XThR.Tn[11].t15 XA.XIR[11].XIC[3].icell.Ien VGND.t1975 sky130_fd_pr__nfet_01v8 ad=0.0725 pd=0.79 as=0.2304 ps=2.18 w=0.5 l=0.15
X121 XA.XIR[7].XIC[8].icell.PUM XThC.Tn[8].t12 XA.XIR[7].XIC[8].icell.Ien VPWR.t1149 sky130_fd_pr__pfet_01v8 ad=0.0675 pd=0.77 as=0.0725 ps=0.79 w=0.5 l=0.15
X122 XThC.Tn[9].t3 XThC.XTB2.Y VPWR.t109 VPWR.t102 sky130_fd_pr__pfet_01v8_hvt ad=0.135 pd=1.27 as=0.135 ps=1.27 w=1 l=0.15
X123 XA.XIR[15].XIC[4].icell.Ien VPWR.t1778 VPWR.t1780 VPWR.t1779 sky130_fd_pr__pfet_01v8 ad=0.0725 pd=0.79 as=0.15 ps=1.6 w=0.5 l=0.15
X124 VGND.t1892 Vbias.t20 XA.XIR[12].XIC[2].icell.SM VGND.t1891 sky130_fd_pr__nfet_g5v0d10v5 ad=0.175 pd=1.7 as=0.0625 ps=0.75 w=0.5 l=0.5
X125 XA.XIR[6].XIC[4].icell.SM XA.XIR[6].XIC[4].icell.Ien Iout.t229 VGND.t2506 sky130_fd_pr__nfet_g5v0d10v5 ad=0.0625 pd=0.75 as=0.175 ps=1.7 w=0.5 l=0.5
X126 VGND.t1894 Vbias.t21 XA.XIR[11].XIC_15.icell.SM VGND.t1893 sky130_fd_pr__nfet_g5v0d10v5 ad=0.175 pd=1.7 as=0.0625 ps=0.75 w=0.5 l=0.5
X127 XA.XIR[10].XIC_dummy_right.icell.Ien VPWR.t1775 VPWR.t1777 VPWR.t1776 sky130_fd_pr__pfet_01v8 ad=0.0725 pd=0.79 as=0.15 ps=1.6 w=0.5 l=0.15
X128 XThC.Tn[5].t6 XThC.XTBN.Y.t11 VGND.t2279 VGND.t1333 sky130_fd_pr__nfet_01v8 ad=0.08775 pd=0.92 as=0.08775 ps=0.92 w=0.65 l=0.15
X129 XA.XIR[1].XIC_dummy_right.icell.SM XA.XIR[1].XIC_dummy_right.icell.Ien XA.XIR[1].XIC_dummy_right.icell.Iout VGND.t1516 sky130_fd_pr__nfet_g5v0d10v5 ad=0.0625 pd=0.75 as=0.175 ps=1.7 w=0.5 l=0.5
X130 VGND.t1896 Vbias.t22 XA.XIR[15].XIC[3].icell.SM VGND.t1895 sky130_fd_pr__nfet_g5v0d10v5 ad=0.175 pd=1.7 as=0.0625 ps=0.75 w=0.5 l=0.5
X131 VGND.t1898 Vbias.t23 XA.XIR[14].XIC[4].icell.SM VGND.t1897 sky130_fd_pr__nfet_g5v0d10v5 ad=0.175 pd=1.7 as=0.0625 ps=0.75 w=0.5 l=0.5
X132 VGND.t626 XThC.Tn[6].t14 XA.XIR[6].XIC[6].icell.PDM VGND.t625 sky130_fd_pr__nfet_01v8 ad=0.0725 pd=0.79 as=0.0725 ps=0.79 w=0.5 l=0.15
X133 VPWR.t666 XThR.Tn[8].t16 XA.XIR[9].XIC[4].icell.PUM VPWR.t665 sky130_fd_pr__pfet_01v8 ad=0.135 pd=1.54 as=0.0675 ps=0.77 w=0.5 l=0.15
X134 VPWR.t973 XThR.Tn[12].t15 XA.XIR[13].XIC[12].icell.PUM VPWR.t972 sky130_fd_pr__pfet_01v8 ad=0.135 pd=1.54 as=0.0675 ps=0.77 w=0.5 l=0.15
X135 VGND.t1027 VGND.t1025 XA.XIR[13].XIC_dummy_right.icell.SM VGND.t1026 sky130_fd_pr__nfet_g5v0d10v5 ad=0.175 pd=1.7 as=0.0625 ps=0.75 w=0.5 l=0.5
X136 XThR.Tn[9].t7 XThR.XTB2.Y a_n997_3755# VGND.t1554 sky130_fd_pr__nfet_01v8 ad=0.08775 pd=0.92 as=0.169 ps=1.82 w=0.65 l=0.15
X137 XThC.Tn[0].t5 XThC.XTBN.Y.t12 a_2979_9615# VPWR.t1366 sky130_fd_pr__pfet_01v8_hvt ad=0.135 pd=1.27 as=0.135 ps=1.27 w=1 l=0.15
X138 XA.XIR[4].XIC_dummy_left.icell.PDM VPWR.t1937 VGND.t693 VGND.t692 sky130_fd_pr__nfet_01v8 ad=0.1312 pd=1.54 as=0.0725 ps=0.79 w=0.5 l=0.15
X139 XThC.Tn[5].t10 XThC.XTBN.Y.t13 a_5949_9615# VPWR.t316 sky130_fd_pr__pfet_01v8_hvt ad=0.135 pd=1.27 as=0.27 ps=2.54 w=1 l=0.15
X140 VGND.t290 XThC.XTB5.Y XThC.Tn[4].t2 VGND.t287 sky130_fd_pr__nfet_01v8 ad=0.08775 pd=0.92 as=0.08775 ps=0.92 w=0.65 l=0.15
X141 XA.XIR[14].XIC[1].icell.PUM XThC.Tn[1].t14 XA.XIR[14].XIC[1].icell.Ien VPWR.t884 sky130_fd_pr__pfet_01v8 ad=0.0675 pd=0.77 as=0.0725 ps=0.79 w=0.5 l=0.15
X142 VGND.t1900 Vbias.t24 XA.XIR[9].XIC[2].icell.SM VGND.t1899 sky130_fd_pr__nfet_g5v0d10v5 ad=0.175 pd=1.7 as=0.0625 ps=0.75 w=0.5 l=0.5
X143 a_9827_9569# XThC.XTB5.Y XThC.Tn[12].t3 VGND.t286 sky130_fd_pr__nfet_01v8 ad=0.169 pd=1.82 as=0.08775 ps=0.92 w=0.65 l=0.15
X144 XA.XIR[13].XIC[0].icell.PUM XThC.Tn[0].t12 XA.XIR[13].XIC[0].icell.Ien VPWR.t741 sky130_fd_pr__pfet_01v8 ad=0.0675 pd=0.77 as=0.0725 ps=0.79 w=0.5 l=0.15
X145 XThC.Tn[7].t3 XThC.XTBN.Y.t14 VGND.t2359 VGND.t2358 sky130_fd_pr__nfet_01v8 ad=0.08775 pd=0.92 as=0.169 ps=1.82 w=0.65 l=0.15
X146 XThC.Tn[2].t10 XThC.XTBN.Y.t15 VGND.t2360 VGND.t100 sky130_fd_pr__nfet_01v8 ad=0.08775 pd=0.92 as=0.169 ps=1.82 w=0.65 l=0.15
X147 VGND.t512 XThC.Tn[10].t13 XA.XIR[0].XIC[10].icell.PDM VGND.t511 sky130_fd_pr__nfet_01v8 ad=0.0725 pd=0.79 as=0.0725 ps=0.79 w=0.5 l=0.15
X148 a_n997_1579# XThR.XTBN.Y.t10 VGND.t1253 VGND.t547 sky130_fd_pr__nfet_01v8 ad=0.08775 pd=0.92 as=0.08775 ps=0.92 w=0.65 l=0.15
X149 XA.XIR[6].XIC[14].icell.PDM XThR.Tn[5].t13 VGND.t133 VGND.t132 sky130_fd_pr__nfet_01v8 ad=0.1312 pd=1.54 as=0.0725 ps=0.79 w=0.5 l=0.15
X150 XA.XIR[6].XIC[8].icell.PDM XThR.Tn[5].t14 VGND.t135 VGND.t134 sky130_fd_pr__nfet_01v8 ad=0.1312 pd=1.54 as=0.0725 ps=0.79 w=0.5 l=0.15
X151 XA.XIR[10].XIC_dummy_left.icell.PUM VPWR.t1773 XA.XIR[10].XIC_dummy_left.icell.Ien VPWR.t1774 sky130_fd_pr__pfet_01v8 ad=0.0675 pd=0.77 as=0.0725 ps=0.79 w=0.5 l=0.15
X152 XA.XIR[9].XIC[14].icell.SM XA.XIR[9].XIC[14].icell.Ien Iout.t36 VGND.t251 sky130_fd_pr__nfet_g5v0d10v5 ad=0.0625 pd=0.75 as=0.175 ps=1.7 w=0.5 l=0.5
X153 VGND.t2252 XThC.Tn[4].t14 XA.XIR[14].XIC[4].icell.PDM VGND.t2251 sky130_fd_pr__nfet_01v8 ad=0.0725 pd=0.79 as=0.0725 ps=0.79 w=0.5 l=0.15
X154 XA.XIR[8].XIC[6].icell.PDM XThR.Tn[8].t17 XA.XIR[8].XIC[6].icell.Ien VGND.t1156 sky130_fd_pr__nfet_01v8 ad=0.0725 pd=0.79 as=0.2304 ps=2.18 w=0.5 l=0.15
X155 XA.XIR[1].XIC[7].icell.PUM XThC.Tn[7].t9 XA.XIR[1].XIC[7].icell.Ien VPWR.t1257 sky130_fd_pr__pfet_01v8 ad=0.0675 pd=0.77 as=0.0725 ps=0.79 w=0.5 l=0.15
X156 XA.XIR[7].XIC[1].icell.PDM XThR.Tn[6].t16 VGND.t666 VGND.t665 sky130_fd_pr__nfet_01v8 ad=0.1312 pd=1.54 as=0.0725 ps=0.79 w=0.5 l=0.15
X157 XA.XIR[2].XIC[5].icell.PDM XThR.Tn[1].t16 VGND.t2257 VGND.t2256 sky130_fd_pr__nfet_01v8 ad=0.1312 pd=1.54 as=0.0725 ps=0.79 w=0.5 l=0.15
X158 XA.XIR[11].XIC[7].icell.PDM XThR.Tn[11].t16 XA.XIR[11].XIC[7].icell.Ien VGND.t1976 sky130_fd_pr__nfet_01v8 ad=0.0725 pd=0.79 as=0.2304 ps=2.18 w=0.5 l=0.15
X159 XA.XIR[4].XIC[8].icell.PUM XThC.Tn[8].t13 XA.XIR[4].XIC[8].icell.Ien VPWR.t1150 sky130_fd_pr__pfet_01v8 ad=0.0675 pd=0.77 as=0.0725 ps=0.79 w=0.5 l=0.15
X160 XA.XIR[9].XIC[3].icell.PDM XThR.Tn[8].t18 VGND.t1158 VGND.t1157 sky130_fd_pr__nfet_01v8 ad=0.1312 pd=1.54 as=0.0725 ps=0.79 w=0.5 l=0.15
X161 XA.XIR[0].XIC_15.icell.SM XA.XIR[0].XIC_15.icell.Ien Iout.t180 VGND.t1704 sky130_fd_pr__nfet_g5v0d10v5 ad=0.0625 pd=0.75 as=0.175 ps=1.7 w=0.5 l=0.5
X162 XA.XIR[4].XIC[12].icell.SM XA.XIR[4].XIC[12].icell.Ien Iout.t174 VGND.t1636 sky130_fd_pr__nfet_g5v0d10v5 ad=0.0625 pd=0.75 as=0.175 ps=1.7 w=0.5 l=0.5
X163 XA.XIR[14].XIC[9].icell.PDM XThR.Tn[13].t13 VGND.t1110 VGND.t1109 sky130_fd_pr__nfet_01v8 ad=0.1312 pd=1.54 as=0.0725 ps=0.79 w=0.5 l=0.15
X164 XA.XIR[11].XIC[12].icell.PUM XThC.Tn[12].t13 XA.XIR[11].XIC[12].icell.Ien VPWR.t1913 sky130_fd_pr__pfet_01v8 ad=0.0675 pd=0.77 as=0.0725 ps=0.79 w=0.5 l=0.15
X165 XA.XIR[12].XIC[4].icell.Ien XThR.Tn[12].t16 VPWR.t975 VPWR.t974 sky130_fd_pr__pfet_01v8 ad=0.0725 pd=0.79 as=0.15 ps=1.6 w=0.5 l=0.15
X166 XA.XIR[3].XIC[4].icell.SM XA.XIR[3].XIC[4].icell.Ien Iout.t77 VGND.t871 sky130_fd_pr__nfet_g5v0d10v5 ad=0.0625 pd=0.75 as=0.175 ps=1.7 w=0.5 l=0.5
X167 XA.XIR[15].XIC[0].icell.Ien VPWR.t1770 VPWR.t1772 VPWR.t1771 sky130_fd_pr__pfet_01v8 ad=0.0725 pd=0.79 as=0.15 ps=1.6 w=0.5 l=0.15
X168 VGND.t776 Vbias.t25 XA.XIR[8].XIC_15.icell.SM VGND.t775 sky130_fd_pr__nfet_g5v0d10v5 ad=0.175 pd=1.7 as=0.0625 ps=0.75 w=0.5 l=0.5
X169 VGND.t2180 XThC.Tn[14].t13 XA.XIR[8].XIC[14].icell.PDM VGND.t2179 sky130_fd_pr__nfet_01v8 ad=0.0725 pd=0.79 as=0.0725 ps=0.79 w=0.5 l=0.15
X170 XA.XIR[7].XIC_dummy_right.icell.Ien VPWR.t1767 VPWR.t1769 VPWR.t1768 sky130_fd_pr__pfet_01v8 ad=0.0725 pd=0.79 as=0.15 ps=1.6 w=0.5 l=0.15
X171 XA.XIR[4].XIC[0].icell.PDM XThR.Tn[4].t16 XA.XIR[4].XIC[0].icell.Ien VGND.t1990 sky130_fd_pr__nfet_01v8 ad=0.0725 pd=0.79 as=0.2304 ps=2.18 w=0.5 l=0.15
X172 VGND.t2156 XThC.Tn[8].t14 XA.XIR[8].XIC[8].icell.PDM VGND.t2155 sky130_fd_pr__nfet_01v8 ad=0.0725 pd=0.79 as=0.0725 ps=0.79 w=0.5 l=0.15
X173 XA.XIR[14].XIC[14].icell.Ien XThR.Tn[14].t13 VPWR.t15 VPWR.t14 sky130_fd_pr__pfet_01v8 ad=0.0725 pd=0.79 as=0.15 ps=1.6 w=0.5 l=0.15
X174 VGND.t2361 XThC.XTBN.Y.t16 XThC.Tn[1].t7 VGND.t204 sky130_fd_pr__nfet_01v8 ad=0.08775 pd=0.92 as=0.08775 ps=0.92 w=0.65 l=0.15
X175 VGND.t778 Vbias.t26 XA.XIR[1].XIC[5].icell.SM VGND.t777 sky130_fd_pr__nfet_g5v0d10v5 ad=0.175 pd=1.7 as=0.0625 ps=0.75 w=0.5 l=0.5
X176 VPWR.t977 XThR.Tn[12].t17 XA.XIR[13].XIC[10].icell.PUM VPWR.t976 sky130_fd_pr__pfet_01v8 ad=0.135 pd=1.54 as=0.0675 ps=0.77 w=0.5 l=0.15
X177 XA.XIR[7].XIC[3].icell.PUM XThC.Tn[3].t13 XA.XIR[7].XIC[3].icell.Ien VPWR.t1837 sky130_fd_pr__pfet_01v8 ad=0.0675 pd=0.77 as=0.0725 ps=0.79 w=0.5 l=0.15
X178 XA.XIR[2].XIC_15.icell.PUM VPWR.t1765 XA.XIR[2].XIC_15.icell.Ien VPWR.t1766 sky130_fd_pr__pfet_01v8 ad=0.0675 pd=0.77 as=0.0725 ps=0.79 w=0.5 l=0.15
X179 XA.XIR[2].XIC[13].icell.PDM XThR.Tn[2].t15 XA.XIR[2].XIC[13].icell.Ien VGND.t811 sky130_fd_pr__nfet_01v8 ad=0.0725 pd=0.79 as=0.2304 ps=2.18 w=0.5 l=0.15
X180 VPWR.t1 XThR.Tn[9].t15 XA.XIR[10].XIC[12].icell.PUM VPWR.t0 sky130_fd_pr__pfet_01v8 ad=0.135 pd=1.54 as=0.0675 ps=0.77 w=0.5 l=0.15
X181 VPWR.t668 XThR.Tn[8].t19 XA.XIR[9].XIC[0].icell.PUM VPWR.t667 sky130_fd_pr__pfet_01v8 ad=0.135 pd=1.54 as=0.0675 ps=0.77 w=0.5 l=0.15
X182 VGND.t780 Vbias.t27 XA.XIR[4].XIC[6].icell.SM VGND.t779 sky130_fd_pr__nfet_g5v0d10v5 ad=0.175 pd=1.7 as=0.0625 ps=0.75 w=0.5 l=0.5
X183 XA.XIR[1].XIC_dummy_left.icell.PDM VPWR.t1938 VGND.t695 VGND.t694 sky130_fd_pr__nfet_01v8 ad=0.1312 pd=1.54 as=0.0725 ps=0.79 w=0.5 l=0.15
X184 VPWR.t1764 VPWR.t1762 XA.XIR[6].XIC_dummy_left.icell.PUM VPWR.t1763 sky130_fd_pr__pfet_01v8 ad=0.135 pd=1.54 as=0.0675 ps=0.77 w=0.5 l=0.15
X185 VPWR.t1367 XThC.XTBN.Y.t17 XThC.Tn[10].t11 VPWR.t30 sky130_fd_pr__pfet_01v8_hvt ad=0.135 pd=1.27 as=0.135 ps=1.27 w=1 l=0.15
X186 VGND.t1254 XThR.XTBN.Y.t11 XThR.Tn[3].t7 VGND.t311 sky130_fd_pr__nfet_01v8 ad=0.169 pd=1.82 as=0.08775 ps=0.92 w=0.65 l=0.15
X187 XA.XIR[3].XIC[11].icell.PDM XThR.Tn[2].t16 VGND.t99 VGND.t98 sky130_fd_pr__nfet_01v8 ad=0.1312 pd=1.54 as=0.0725 ps=0.79 w=0.5 l=0.15
X188 XA.XIR[6].XIC[8].icell.Ien XThR.Tn[6].t17 VPWR.t457 VPWR.t456 sky130_fd_pr__pfet_01v8 ad=0.0725 pd=0.79 as=0.15 ps=1.6 w=0.5 l=0.15
X189 XThR.Tn[0].t4 XThR.XTBN.Y.t12 a_n1049_8581# VPWR.t693 sky130_fd_pr__pfet_01v8_hvt ad=0.135 pd=1.27 as=0.135 ps=1.27 w=1 l=0.15
X190 XA.XIR[13].XIC[12].icell.Ien XThR.Tn[13].t14 VPWR.t637 VPWR.t636 sky130_fd_pr__pfet_01v8 ad=0.0725 pd=0.79 as=0.15 ps=1.6 w=0.5 l=0.15
X191 XA.XIR[13].XIC[7].icell.SM XA.XIR[13].XIC[7].icell.Ien Iout.t48 VGND.t421 sky130_fd_pr__nfet_g5v0d10v5 ad=0.0625 pd=0.75 as=0.175 ps=1.7 w=0.5 l=0.5
X192 VPWR.t598 VGND.t2689 XA.XIR[0].XIC[8].icell.PUM VPWR.t597 sky130_fd_pr__pfet_01v8 ad=0.135 pd=1.54 as=0.0675 ps=0.77 w=0.5 l=0.15
X193 XA.XIR[10].XIC[14].icell.PDM XThR.Tn[10].t13 XA.XIR[10].XIC[14].icell.Ien VGND.t2526 sky130_fd_pr__nfet_01v8 ad=0.0725 pd=0.79 as=0.2304 ps=2.18 w=0.5 l=0.15
X194 XA.XIR[10].XIC[8].icell.PDM XThR.Tn[10].t14 XA.XIR[10].XIC[8].icell.Ien VGND.t2527 sky130_fd_pr__nfet_01v8 ad=0.0725 pd=0.79 as=0.2304 ps=2.18 w=0.5 l=0.15
X195 XThC.Tn[12].t6 XThC.XTB5.Y VPWR.t166 VPWR.t160 sky130_fd_pr__pfet_01v8_hvt ad=0.135 pd=1.27 as=0.135 ps=1.27 w=1 l=0.15
X196 XA.XIR[1].XIC[11].icell.PUM XThC.Tn[11].t14 XA.XIR[1].XIC[11].icell.Ien VPWR.t451 sky130_fd_pr__pfet_01v8 ad=0.0675 pd=0.77 as=0.0725 ps=0.79 w=0.5 l=0.15
X197 XThR.Tn[11].t11 XThR.XTBN.Y.t13 VPWR.t694 VPWR.t376 sky130_fd_pr__pfet_01v8_hvt ad=0.135 pd=1.27 as=0.135 ps=1.27 w=1 l=0.15
X198 XA.XIR[0].XIC[7].icell.Ien XThR.Tn[0].t14 VPWR.t649 VPWR.t648 sky130_fd_pr__pfet_01v8 ad=0.0725 pd=0.79 as=0.15 ps=1.6 w=0.5 l=0.15
X199 XA.XIR[3].XIC[2].icell.PDM XThR.Tn[2].t17 VGND.t97 VGND.t96 sky130_fd_pr__nfet_01v8 ad=0.1312 pd=1.54 as=0.0725 ps=0.79 w=0.5 l=0.15
X200 XA.XIR[8].XIC[9].icell.PUM XThC.Tn[9].t14 XA.XIR[8].XIC[9].icell.Ien VPWR.t805 sky130_fd_pr__pfet_01v8 ad=0.0675 pd=0.77 as=0.0725 ps=0.79 w=0.5 l=0.15
X201 XA.XIR[9].XIC[7].icell.PDM XThR.Tn[8].t20 VGND.t1160 VGND.t1159 sky130_fd_pr__nfet_01v8 ad=0.1312 pd=1.54 as=0.0725 ps=0.79 w=0.5 l=0.15
X202 XA.XIR[1].XIC_dummy_left.icell.SM XA.XIR[1].XIC_dummy_left.icell.Ien XA.XIR[1].XIC_dummy_left.icell.Iout VGND.t1957 sky130_fd_pr__nfet_g5v0d10v5 ad=0.0625 pd=0.75 as=0.175 ps=1.7 w=0.5 l=0.5
X203 XA.XIR[6].XIC[3].icell.PDM XThR.Tn[5].t15 VGND.t137 VGND.t136 sky130_fd_pr__nfet_01v8 ad=0.1312 pd=1.54 as=0.0725 ps=0.79 w=0.5 l=0.15
X204 VGND.t659 XThC.Tn[11].t15 XA.XIR[5].XIC[11].icell.PDM VGND.t658 sky130_fd_pr__nfet_01v8 ad=0.0725 pd=0.79 as=0.0725 ps=0.79 w=0.5 l=0.15
X205 XA.XIR[11].XIC[10].icell.PUM XThC.Tn[10].t14 XA.XIR[11].XIC[10].icell.Ien VPWR.t321 sky130_fd_pr__pfet_01v8 ad=0.0675 pd=0.77 as=0.0725 ps=0.79 w=0.5 l=0.15
X206 XThR.Tn[2].t8 XThR.XTBN.Y.t14 VGND.t1255 VGND.t495 sky130_fd_pr__nfet_01v8 ad=0.08775 pd=0.92 as=0.08775 ps=0.92 w=0.65 l=0.15