* NGSPICE file created from csdac255_parax.ext - technology: sky130A

.subckt csdac255_parax Iout VPWR VGND Vbias data[0] data[1] data[2] data[3] data[4]
+ data[5] data[6] data[7] bias[0] bias[1] bias[2]
X0 VPWR.t1522 XThR.Tn[2].t12 XA.XIR[3].XIC[8].icell.PUM VPWR.t1521 sky130_fd_pr__pfet_01v8 ad=0.135 pd=1.54 as=0.0675 ps=0.77 w=0.5 l=0.15
X1 XA.XIR[11].XIC_dummy_right.icell.Ien VPWR.t1458 VPWR.t1460 VPWR.t1459 sky130_fd_pr__pfet_01v8 ad=0.0725 pd=0.79 as=0.15 ps=1.6 w=0.5 l=0.15
X2 VGND.t1587 XThC.Tn[10].t12 XA.XIR[4].XIC[10].icell.PDM VGND.t1586 sky130_fd_pr__nfet_01v8 ad=0.0725 pd=0.79 as=0.0725 ps=0.79 w=0.5 l=0.15
X3 VGND.t928 XThR.XTBN.Y a_n997_2667# VGND.t890 sky130_fd_pr__nfet_01v8 ad=0.08775 pd=0.92 as=0.08775 ps=0.92 w=0.65 l=0.15
X4 VPWR.t299 XThR.Tn[6].t12 XA.XIR[7].XIC[8].icell.PUM VPWR.t298 sky130_fd_pr__pfet_01v8 ad=0.135 pd=1.54 as=0.0675 ps=0.77 w=0.5 l=0.15
X5 XA.XIR[14].XIC[5].icell.Ien XThR.Tn[14].t12 VPWR.t1712 VPWR.t1711 sky130_fd_pr__pfet_01v8 ad=0.0725 pd=0.79 as=0.15 ps=1.6 w=0.5 l=0.15
X6 VGND.t291 Vbias.t6 XA.XIR[9].XIC[7].icell.SM VGND.t290 sky130_fd_pr__nfet_g5v0d10v5 ad=0.175 pd=1.7 as=0.0625 ps=0.75 w=0.5 l=0.5
X7 XA.XIR[12].XIC[6].icell.PDM XThR.Tn[12].t12 XA.XIR[12].XIC[6].icell.Ien VGND.t1261 sky130_fd_pr__nfet_01v8 ad=0.0725 pd=0.79 as=0.2304 ps=2.18 w=0.5 l=0.15
X8 XThC.Tn[6].t7 XThC.XTBN.Y.t4 VGND.t658 VGND.t657 sky130_fd_pr__nfet_01v8 ad=0.08775 pd=0.92 as=0.169 ps=1.82 w=0.65 l=0.15
X9 XA.XIR[5].XIC_dummy_left.icell.PDM VPWR.t1926 VGND.t1827 VGND.t1826 sky130_fd_pr__nfet_01v8 ad=0.1312 pd=1.54 as=0.0725 ps=0.79 w=0.5 l=0.15
X10 XA.XIR[10].XIC[2].icell.PDM XThR.Tn[9].t12 VGND.t1128 VGND.t1127 sky130_fd_pr__nfet_01v8 ad=0.1312 pd=1.54 as=0.0725 ps=0.79 w=0.5 l=0.15
X11 VGND.t659 XThC.XTBN.Y.t5 XThC.Tn[5].t3 VGND.t39 sky130_fd_pr__nfet_01v8 ad=0.08775 pd=0.92 as=0.08775 ps=0.92 w=0.65 l=0.15
X12 XA.XIR[15].XIC[9].icell.PUM XThC.Tn[9].t12 XA.XIR[15].XIC[9].icell.Ien VPWR.t1032 sky130_fd_pr__pfet_01v8 ad=0.0675 pd=0.77 as=0.0725 ps=0.79 w=0.5 l=0.15
X13 XA.XIR[13].XIC[3].icell.PDM XThR.Tn[12].t13 VGND.t1263 VGND.t1262 sky130_fd_pr__nfet_01v8 ad=0.1312 pd=1.54 as=0.0725 ps=0.79 w=0.5 l=0.15
X14 VGND.t191 Vbias.t2 Vbias.t3 VGND.t190 sky130_fd_pr__nfet_g5v0d10v5 ad=0.725 pd=5.58 as=0.725 ps=5.58 w=2.5 l=1
X15 VGND.t1276 XThC.Tn[11].t12 XA.XIR[12].XIC[11].icell.PDM VGND.t1275 sky130_fd_pr__nfet_01v8 ad=0.0725 pd=0.79 as=0.0725 ps=0.79 w=0.5 l=0.15
X16 XThC.Tn[12].t7 XThC.XTB5.Y VPWR.t1688 VPWR.t40 sky130_fd_pr__pfet_01v8_hvt ad=0.135 pd=1.27 as=0.135 ps=1.27 w=1 l=0.15
X17 VGND.t293 Vbias.t7 XA.XIR[2].XIC[0].icell.SM VGND.t292 sky130_fd_pr__nfet_g5v0d10v5 ad=0.175 pd=1.7 as=0.0625 ps=0.75 w=0.5 l=0.5
X18 XA.XIR[8].XIC_15.icell.PDM VPWR.t1927 VGND.t1825 VGND.t1824 sky130_fd_pr__nfet_01v8 ad=0.1312 pd=1.54 as=0.0725 ps=0.79 w=0.5 l=0.15
X19 XA.XIR[14].XIC[13].icell.PUM XThC.Tn[13].t12 XA.XIR[14].XIC[13].icell.Ien VPWR.t857 sky130_fd_pr__pfet_01v8 ad=0.0675 pd=0.77 as=0.0725 ps=0.79 w=0.5 l=0.15
X20 a_2979_9615# XThC.XTBN.Y.t6 XThC.Tn[0].t3 VPWR.t368 sky130_fd_pr__pfet_01v8_hvt ad=0.135 pd=1.27 as=0.135 ps=1.27 w=1 l=0.15
X21 XA.XIR[11].XIC_dummy_left.icell.PUM VPWR.t1456 XA.XIR[11].XIC_dummy_left.icell.Ien VPWR.t1457 sky130_fd_pr__pfet_01v8 ad=0.0675 pd=0.77 as=0.0725 ps=0.79 w=0.5 l=0.15
X22 a_5949_9615# XThC.XTBN.Y.t7 XThC.Tn[5].t7 VPWR.t104 sky130_fd_pr__pfet_01v8_hvt ad=0.135 pd=1.27 as=0.135 ps=1.27 w=1 l=0.15
X23 XA.XIR[6].XIC[10].icell.PDM XThR.Tn[6].t13 XA.XIR[6].XIC[10].icell.Ien VGND.t574 sky130_fd_pr__nfet_01v8 ad=0.0725 pd=0.79 as=0.2304 ps=2.18 w=0.5 l=0.15
X24 a_4861_9615# XThC.XTB4.Y.t2 VPWR.t813 VPWR.t44 sky130_fd_pr__pfet_01v8_hvt ad=0.135 pd=1.27 as=0.135 ps=1.27 w=1 l=0.15
X25 XA.XIR[0].XIC[4].icell.PDM VGND.t2013 VGND.t2015 VGND.t2014 sky130_fd_pr__nfet_01v8 ad=0.1312 pd=1.54 as=0.0725 ps=0.79 w=0.5 l=0.15
X26 VGND.t295 Vbias.t8 XA.XIR[0].XIC[13].icell.SM VGND.t294 sky130_fd_pr__nfet_g5v0d10v5 ad=0.175 pd=1.7 as=0.0625 ps=0.75 w=0.5 l=0.5
X27 XA.XIR[4].XIC[12].icell.PDM XThR.Tn[3].t12 VGND.t2072 VGND.t2071 sky130_fd_pr__nfet_01v8 ad=0.1312 pd=1.54 as=0.0725 ps=0.79 w=0.5 l=0.15
X28 XThR.Tn[5].t3 XThR.XTBN.Y a_n1049_5611# VPWR.t468 sky130_fd_pr__pfet_01v8_hvt ad=0.135 pd=1.27 as=0.135 ps=1.27 w=1 l=0.15
X29 XThC.Tn[4].t11 XThC.XTB5.Y VGND.t2264 VGND.t132 sky130_fd_pr__nfet_01v8 ad=0.08775 pd=0.92 as=0.08775 ps=0.92 w=0.65 l=0.15
X30 XA.XIR[3].XIC[9].icell.SM XA.XIR[3].XIC[9].icell.Ien Iout.t50 VGND.t585 sky130_fd_pr__nfet_g5v0d10v5 ad=0.0625 pd=0.75 as=0.175 ps=1.7 w=0.5 l=0.5
X31 VGND.t2590 XThC.XTBN.Y.t8 XThC.Tn[2].t7 VGND.t126 sky130_fd_pr__nfet_01v8 ad=0.08775 pd=0.92 as=0.08775 ps=0.92 w=0.65 l=0.15
X32 XThR.XTB2.Y XThR.XTB6.A VPWR.t1861 VPWR.t688 sky130_fd_pr__pfet_01v8_hvt ad=0.135 pd=1.27 as=0.26 ps=2.52 w=1 l=0.15
X33 XA.XIR[7].XIC[13].icell.PDM XThR.Tn[6].t14 VGND.t576 VGND.t575 sky130_fd_pr__nfet_01v8 ad=0.1312 pd=1.54 as=0.0725 ps=0.79 w=0.5 l=0.15
X34 VGND.t1352 XThC.Tn[2].t12 XA.XIR[12].XIC[2].icell.PDM VGND.t1351 sky130_fd_pr__nfet_01v8 ad=0.0725 pd=0.79 as=0.0725 ps=0.79 w=0.5 l=0.15
X35 VPWR.t1455 VPWR.t1453 XA.XIR[10].XIC_dummy_left.icell.PUM VPWR.t1454 sky130_fd_pr__pfet_01v8 ad=0.135 pd=1.54 as=0.0675 ps=0.77 w=0.5 l=0.15
X36 VGND.t1823 VPWR.t1928 XA.XIR[7].XIC_dummy_left.icell.PDM VGND.t1822 sky130_fd_pr__nfet_01v8 ad=0.0725 pd=0.79 as=0.0725 ps=0.79 w=0.5 l=0.15
X37 VPWR.t1573 XThR.Tn[3].t13 XA.XIR[4].XIC[11].icell.PUM VPWR.t1572 sky130_fd_pr__pfet_01v8 ad=0.135 pd=1.54 as=0.0675 ps=0.77 w=0.5 l=0.15
X38 XA.XIR[2].XIC[1].icell.PUM XThC.Tn[1].t12 XA.XIR[2].XIC[1].icell.Ien VPWR.t1673 sky130_fd_pr__pfet_01v8 ad=0.0675 pd=0.77 as=0.0725 ps=0.79 w=0.5 l=0.15
X39 VGND.t689 XThC.Tn[3].t12 XA.XIR[15].XIC[3].icell.PDM VGND.t688 sky130_fd_pr__nfet_01v8 ad=0.0725 pd=0.79 as=0.0725 ps=0.79 w=0.5 l=0.15
X40 VGND.t1821 VPWR.t1929 XA.XIR[10].XIC_15.icell.PDM VGND.t1820 sky130_fd_pr__nfet_01v8 ad=0.0725 pd=0.79 as=0.0725 ps=0.79 w=0.5 l=0.15
X41 VPWR.t1915 XThR.Tn[10].t12 XA.XIR[11].XIC[9].icell.PUM VPWR.t1914 sky130_fd_pr__pfet_01v8 ad=0.135 pd=1.54 as=0.0675 ps=0.77 w=0.5 l=0.15
X42 VGND.t297 Vbias.t9 XA.XIR[12].XIC[2].icell.SM VGND.t296 sky130_fd_pr__nfet_g5v0d10v5 ad=0.175 pd=1.7 as=0.0625 ps=0.75 w=0.5 l=0.5
X43 XA.XIR[0].XIC[14].icell.PUM XThC.Tn[14].t12 XA.XIR[0].XIC[14].icell.Ien VPWR.t1025 sky130_fd_pr__pfet_01v8 ad=0.0675 pd=0.77 as=0.0725 ps=0.79 w=0.5 l=0.15
X44 XA.XIR[13].XIC_dummy_left.icell.Ien VPWR.t1450 VPWR.t1452 VPWR.t1451 sky130_fd_pr__pfet_01v8 ad=0.0725 pd=0.79 as=0.15 ps=1.6 w=0.5 l=0.15
X45 VGND.t299 Vbias.t10 XA.XIR[11].XIC_15.icell.SM VGND.t298 sky130_fd_pr__nfet_g5v0d10v5 ad=0.175 pd=1.7 as=0.0625 ps=0.75 w=0.5 l=0.5
X46 XA.XIR[6].XIC[4].icell.SM XA.XIR[6].XIC[4].icell.Ien Iout.t32 VGND.t134 sky130_fd_pr__nfet_g5v0d10v5 ad=0.0625 pd=0.75 as=0.175 ps=1.7 w=0.5 l=0.5
X47 a_7651_9569# XThC.XTB1.Y.t3 XThC.Tn[8].t7 VGND.t9 sky130_fd_pr__nfet_01v8 ad=0.08775 pd=0.92 as=0.08775 ps=0.92 w=0.65 l=0.15
X48 XA.XIR[1].XIC_dummy_right.icell.SM XA.XIR[1].XIC_dummy_right.icell.Ien XA.XIR[1].XIC_dummy_right.icell.Iout VGND.t560 sky130_fd_pr__nfet_g5v0d10v5 ad=0.0625 pd=0.75 as=0.175 ps=1.7 w=0.5 l=0.5
X49 XA.XIR[1].XIC[6].icell.Ien XThR.Tn[1].t12 VPWR.t682 VPWR.t681 sky130_fd_pr__pfet_01v8 ad=0.0725 pd=0.79 as=0.15 ps=1.6 w=0.5 l=0.15
X50 VGND.t301 Vbias.t11 XA.XIR[15].XIC[3].icell.SM VGND.t300 sky130_fd_pr__nfet_g5v0d10v5 ad=0.175 pd=1.7 as=0.0625 ps=0.75 w=0.5 l=0.5
X51 a_10051_9569# XThC.XTB6.Y XThC.Tn[13].t11 VGND.t984 sky130_fd_pr__nfet_01v8 ad=0.169 pd=1.82 as=0.08775 ps=0.92 w=0.65 l=0.15
X52 VGND.t1338 XThC.Tn[4].t12 XA.XIR[2].XIC[4].icell.PDM VGND.t1337 sky130_fd_pr__nfet_01v8 ad=0.0725 pd=0.79 as=0.0725 ps=0.79 w=0.5 l=0.15
X53 VGND.t303 Vbias.t12 XA.XIR[14].XIC[4].icell.SM VGND.t302 sky130_fd_pr__nfet_g5v0d10v5 ad=0.175 pd=1.7 as=0.0625 ps=0.75 w=0.5 l=0.5
X54 XThC.XTB5.Y XThC.XTB7.B VGND.t133 VGND.t132 sky130_fd_pr__nfet_01v8 ad=0.08775 pd=0.92 as=0.169 ps=1.82 w=0.65 l=0.15
X55 XThC.Tn[7].t3 XThC.XTBN.Y.t9 VPWR.t1889 VPWR.t1888 sky130_fd_pr__pfet_01v8_hvt ad=0.135 pd=1.27 as=0.26 ps=2.52 w=1 l=0.15
X56 XA.XIR[10].XIC[6].icell.PDM XThR.Tn[9].t13 VGND.t1130 VGND.t1129 sky130_fd_pr__nfet_01v8 ad=0.1312 pd=1.54 as=0.0725 ps=0.79 w=0.5 l=0.15
X57 VGND.t2121 XThR.XTB7.Y XThR.Tn[6].t11 VGND.t2120 sky130_fd_pr__nfet_01v8 ad=0.08775 pd=0.92 as=0.08775 ps=0.92 w=0.65 l=0.15
X58 XA.XIR[4].XIC[7].icell.Ien XThR.Tn[4].t12 VPWR.t78 VPWR.t77 sky130_fd_pr__pfet_01v8 ad=0.0725 pd=0.79 as=0.15 ps=1.6 w=0.5 l=0.15
X59 VPWR.t532 XThR.XTBN.Y XThR.Tn[9].t3 VPWR.t519 sky130_fd_pr__pfet_01v8_hvt ad=0.135 pd=1.27 as=0.135 ps=1.27 w=1 l=0.15
X60 XThR.XTB7.Y XThR.XTB7.A VGND.t1064 VGND.t1063 sky130_fd_pr__nfet_01v8 ad=0.08775 pd=0.92 as=0.169 ps=1.82 w=0.65 l=0.15
X61 XA.XIR[3].XIC[8].icell.Ien XThR.Tn[3].t14 VPWR.t1575 VPWR.t1574 sky130_fd_pr__pfet_01v8 ad=0.0725 pd=0.79 as=0.15 ps=1.6 w=0.5 l=0.15
X62 VGND.t2012 VGND.t2010 XA.XIR[13].XIC_dummy_right.icell.SM VGND.t2011 sky130_fd_pr__nfet_g5v0d10v5 ad=0.175 pd=1.7 as=0.0625 ps=0.75 w=0.5 l=0.5
X63 VPWR.t1577 XThR.Tn[3].t15 XA.XIR[4].XIC[2].icell.PUM VPWR.t1576 sky130_fd_pr__pfet_01v8 ad=0.135 pd=1.54 as=0.0675 ps=0.77 w=0.5 l=0.15
X64 XA.XIR[13].XIC[7].icell.PDM XThR.Tn[12].t14 VGND.t1265 VGND.t1264 sky130_fd_pr__nfet_01v8 ad=0.1312 pd=1.54 as=0.0725 ps=0.79 w=0.5 l=0.15
X65 XA.XIR[1].XIC[9].icell.PDM XThR.Tn[1].t13 XA.XIR[1].XIC[9].icell.Ien VGND.t1077 sky130_fd_pr__nfet_01v8 ad=0.0725 pd=0.79 as=0.2304 ps=2.18 w=0.5 l=0.15
X66 VPWR.t1520 XThR.Tn[2].t13 XA.XIR[3].XIC[3].icell.PUM VPWR.t1519 sky130_fd_pr__pfet_01v8 ad=0.135 pd=1.54 as=0.0675 ps=0.77 w=0.5 l=0.15
X67 VPWR.t301 XThR.Tn[6].t15 XA.XIR[7].XIC[3].icell.PUM VPWR.t300 sky130_fd_pr__pfet_01v8 ad=0.135 pd=1.54 as=0.0675 ps=0.77 w=0.5 l=0.15
X68 VPWR.t1449 VPWR.t1447 XA.XIR[2].XIC_15.icell.PUM VPWR.t1448 sky130_fd_pr__pfet_01v8 ad=0.135 pd=1.54 as=0.0675 ps=0.77 w=0.5 l=0.15
X69 VGND.t305 Vbias.t13 XA.XIR[9].XIC[2].icell.SM VGND.t304 sky130_fd_pr__nfet_g5v0d10v5 ad=0.175 pd=1.7 as=0.0625 ps=0.75 w=0.5 l=0.5
X70 a_6243_9615# XThC.XTB7.Y VPWR.t968 VPWR.t108 sky130_fd_pr__pfet_01v8_hvt ad=0.28 pd=2.56 as=0.135 ps=1.27 w=1 l=0.15
X71 XA.XIR[11].XIC[14].icell.PDM XThR.Tn[11].t12 XA.XIR[11].XIC[14].icell.Ien VGND.t1272 sky130_fd_pr__nfet_01v8 ad=0.0725 pd=0.79 as=0.2304 ps=2.18 w=0.5 l=0.15
X72 XA.XIR[11].XIC[8].icell.PDM XThR.Tn[11].t13 XA.XIR[11].XIC[8].icell.Ien VGND.t1273 sky130_fd_pr__nfet_01v8 ad=0.0725 pd=0.79 as=0.2304 ps=2.18 w=0.5 l=0.15
X73 XA.XIR[4].XIC[10].icell.PDM XThR.Tn[3].t16 VGND.t209 VGND.t208 sky130_fd_pr__nfet_01v8 ad=0.1312 pd=1.54 as=0.0725 ps=0.79 w=0.5 l=0.15
X74 XThR.Tn[7].t3 XThR.XTBN.Y VPWR.t531 VPWR.t530 sky130_fd_pr__pfet_01v8_hvt ad=0.135 pd=1.27 as=0.26 ps=2.52 w=1 l=0.15
X75 XA.XIR[9].XIC[14].icell.SM XA.XIR[9].XIC[14].icell.Ien Iout.t38 VGND.t188 sky130_fd_pr__nfet_g5v0d10v5 ad=0.0625 pd=0.75 as=0.175 ps=1.7 w=0.5 l=0.5
X76 XA.XIR[1].XIC[12].icell.PDM XThR.Tn[0].t12 VGND.t1069 VGND.t1068 sky130_fd_pr__nfet_01v8 ad=0.1312 pd=1.54 as=0.0725 ps=0.79 w=0.5 l=0.15
X77 a_8963_9569# XThC.XTBN.Y.t10 VGND.t2591 VGND.t16 sky130_fd_pr__nfet_01v8 ad=0.08775 pd=0.92 as=0.08775 ps=0.92 w=0.65 l=0.15
X78 VGND.t1232 XThC.Tn[6].t12 XA.XIR[12].XIC[6].icell.PDM VGND.t1231 sky130_fd_pr__nfet_01v8 ad=0.0725 pd=0.79 as=0.0725 ps=0.79 w=0.5 l=0.15
X79 VGND.t1819 VPWR.t1930 XA.XIR[4].XIC_dummy_left.icell.PDM VGND.t1818 sky130_fd_pr__nfet_01v8 ad=0.0725 pd=0.79 as=0.0725 ps=0.79 w=0.5 l=0.15
X80 VGND.t927 XThR.XTBN.Y XThR.Tn[5].t7 VGND.t910 sky130_fd_pr__nfet_01v8 ad=0.169 pd=1.82 as=0.08775 ps=0.92 w=0.65 l=0.15
X81 VGND.t1219 XThC.Tn[7].t8 XA.XIR[15].XIC[7].icell.PDM VGND.t1218 sky130_fd_pr__nfet_01v8 ad=0.0725 pd=0.79 as=0.0725 ps=0.79 w=0.5 l=0.15
X82 VGND.t1278 XThC.Tn[11].t13 XA.XIR[6].XIC[11].icell.PDM VGND.t1277 sky130_fd_pr__nfet_01v8 ad=0.0725 pd=0.79 as=0.0725 ps=0.79 w=0.5 l=0.15
X83 XA.XIR[0].XIC_15.icell.SM XA.XIR[0].XIC_15.icell.Ien Iout.t208 VGND.t2373 sky130_fd_pr__nfet_g5v0d10v5 ad=0.0625 pd=0.75 as=0.175 ps=1.7 w=0.5 l=0.5
X84 XA.XIR[4].XIC[12].icell.SM XA.XIR[4].XIC[12].icell.Ien Iout.t195 VGND.t2351 sky130_fd_pr__nfet_g5v0d10v5 ad=0.0625 pd=0.75 as=0.175 ps=1.7 w=0.5 l=0.5
X85 XA.XIR[3].XIC[4].icell.SM XA.XIR[3].XIC[4].icell.Ien Iout.t126 VGND.t1190 sky130_fd_pr__nfet_g5v0d10v5 ad=0.0625 pd=0.75 as=0.175 ps=1.7 w=0.5 l=0.5
X86 VGND.t307 Vbias.t14 XA.XIR[8].XIC_15.icell.SM VGND.t306 sky130_fd_pr__nfet_g5v0d10v5 ad=0.175 pd=1.7 as=0.0625 ps=0.75 w=0.5 l=0.5
X87 VGND.t2252 XThC.Tn[1].t13 XA.XIR[3].XIC[1].icell.PDM VGND.t2251 sky130_fd_pr__nfet_01v8 ad=0.0725 pd=0.79 as=0.0725 ps=0.79 w=0.5 l=0.15
X88 XA.XIR[4].XIC[11].icell.Ien XThR.Tn[4].t13 VPWR.t80 VPWR.t79 sky130_fd_pr__pfet_01v8 ad=0.0725 pd=0.79 as=0.15 ps=1.6 w=0.5 l=0.15
X89 VPWR.t1905 XThR.XTB6.Y a_n1049_5611# VPWR.t1606 sky130_fd_pr__pfet_01v8_hvt ad=0.135 pd=1.27 as=0.28 ps=2.56 w=1 l=0.15
X90 XA.XIR[14].XIC[6].icell.PUM XThC.Tn[6].t13 XA.XIR[14].XIC[6].icell.Ien VPWR.t843 sky130_fd_pr__pfet_01v8 ad=0.0675 pd=0.77 as=0.0725 ps=0.79 w=0.5 l=0.15
X91 VGND.t309 Vbias.t15 XA.XIR[1].XIC[5].icell.SM VGND.t308 sky130_fd_pr__nfet_g5v0d10v5 ad=0.175 pd=1.7 as=0.0625 ps=0.75 w=0.5 l=0.5
X92 VGND.t1354 XThC.Tn[2].t13 XA.XIR[6].XIC[2].icell.PDM VGND.t1353 sky130_fd_pr__nfet_01v8 ad=0.0725 pd=0.79 as=0.0725 ps=0.79 w=0.5 l=0.15
X93 XA.XIR[11].XIC[9].icell.Ien XThR.Tn[11].t14 VPWR.t1595 VPWR.t1594 sky130_fd_pr__pfet_01v8 ad=0.0725 pd=0.79 as=0.15 ps=1.6 w=0.5 l=0.15
X94 VGND.t311 Vbias.t16 XA.XIR[4].XIC[6].icell.SM VGND.t310 sky130_fd_pr__nfet_g5v0d10v5 ad=0.175 pd=1.7 as=0.0625 ps=0.75 w=0.5 l=0.5
X95 XA.XIR[6].XIC_dummy_left.icell.PDM VPWR.t1931 XA.XIR[6].XIC_dummy_left.icell.Ien VGND.t1817 sky130_fd_pr__nfet_01v8 ad=0.0725 pd=0.79 as=0.2304 ps=2.18 w=0.5 l=0.15
X96 a_n1049_7787# XThR.XTB2.Y VPWR.t1020 VPWR.t342 sky130_fd_pr__pfet_01v8_hvt ad=0.135 pd=1.27 as=0.135 ps=1.27 w=1 l=0.15
X97 VGND.t1496 XThC.Tn[9].t13 XA.XIR[14].XIC[9].icell.PDM VGND.t1495 sky130_fd_pr__nfet_01v8 ad=0.0725 pd=0.79 as=0.0725 ps=0.79 w=0.5 l=0.15
X98 XA.XIR[8].XIC[11].icell.PDM XThR.Tn[8].t12 XA.XIR[8].XIC[11].icell.Ien VGND.t565 sky130_fd_pr__nfet_01v8 ad=0.0725 pd=0.79 as=0.2304 ps=2.18 w=0.5 l=0.15
X99 XA.XIR[1].XIC[1].icell.Ien XThR.Tn[1].t14 VPWR.t708 VPWR.t707 sky130_fd_pr__pfet_01v8 ad=0.0725 pd=0.79 as=0.15 ps=1.6 w=0.5 l=0.15
X100 XA.XIR[13].XIC[4].icell.PUM XThC.Tn[4].t13 XA.XIR[13].XIC[4].icell.Ien VPWR.t935 sky130_fd_pr__pfet_01v8 ad=0.0675 pd=0.77 as=0.0725 ps=0.79 w=0.5 l=0.15
X101 XA.XIR[8].XIC_dummy_right.icell.PUM VPWR.t1445 XA.XIR[8].XIC_dummy_right.icell.Ien VPWR.t1446 sky130_fd_pr__pfet_01v8 ad=0.0675 pd=0.77 as=0.0725 ps=0.79 w=0.5 l=0.15
X102 XA.XIR[1].XIC[10].icell.PDM XThR.Tn[0].t13 VGND.t1071 VGND.t1070 sky130_fd_pr__nfet_01v8 ad=0.1312 pd=1.54 as=0.0725 ps=0.79 w=0.5 l=0.15
X103 XA.XIR[4].XIC[2].icell.Ien XThR.Tn[4].t14 VPWR.t82 VPWR.t81 sky130_fd_pr__pfet_01v8 ad=0.0725 pd=0.79 as=0.15 ps=1.6 w=0.5 l=0.15
X104 XA.XIR[9].XIC[14].icell.PDM XThR.Tn[8].t13 VGND.t567 VGND.t566 sky130_fd_pr__nfet_01v8 ad=0.1312 pd=1.54 as=0.0725 ps=0.79 w=0.5 l=0.15
X105 XA.XIR[9].XIC[8].icell.PDM XThR.Tn[8].t14 VGND.t569 VGND.t568 sky130_fd_pr__nfet_01v8 ad=0.1312 pd=1.54 as=0.0725 ps=0.79 w=0.5 l=0.15
X106 XA.XIR[3].XIC[3].icell.Ien XThR.Tn[3].t17 VPWR.t128 VPWR.t127 sky130_fd_pr__pfet_01v8 ad=0.0725 pd=0.79 as=0.15 ps=1.6 w=0.5 l=0.15
X107 XA.XIR[13].XIC[7].icell.SM XA.XIR[13].XIC[7].icell.Ien Iout.t15 VGND.t104 sky130_fd_pr__nfet_g5v0d10v5 ad=0.0625 pd=0.75 as=0.175 ps=1.7 w=0.5 l=0.5
X108 VGND.t1317 XThC.Tn[12].t12 XA.XIR[0].XIC[12].icell.PDM VGND.t1316 sky130_fd_pr__nfet_01v8 ad=0.0725 pd=0.79 as=0.0725 ps=0.79 w=0.5 l=0.15
X109 VPWR.t611 XThC.XTB3.Y.t3 a_4067_9615# VPWR.t109 sky130_fd_pr__pfet_01v8_hvt ad=0.135 pd=1.27 as=0.135 ps=1.27 w=1 l=0.15
X110 XA.XIR[1].XIC[4].icell.PDM XThR.Tn[1].t15 XA.XIR[1].XIC[4].icell.Ien VGND.t1078 sky130_fd_pr__nfet_01v8 ad=0.0725 pd=0.79 as=0.2304 ps=2.18 w=0.5 l=0.15
X111 XA.XIR[5].XIC[1].icell.PDM XThR.Tn[5].t12 XA.XIR[5].XIC[1].icell.Ien VGND.t1382 sky130_fd_pr__nfet_01v8 ad=0.0725 pd=0.79 as=0.2304 ps=2.18 w=0.5 l=0.15
X112 VPWR.t614 data[4].t0 a_n1335_4229# VPWR.t613 sky130_fd_pr__pfet_01v8_hvt ad=0.26 pd=2.52 as=0.105 ps=1.21 w=1 l=0.15
X113 XA.XIR[2].XIC_15.icell.Ien XThR.Tn[2].t14 VPWR.t1518 VPWR.t1517 sky130_fd_pr__pfet_01v8 ad=0.0725 pd=0.79 as=0.15 ps=1.6 w=0.5 l=0.15
X114 XA.XIR[9].XIC[1].icell.PDM XThR.Tn[9].t14 XA.XIR[9].XIC[1].icell.Ien VGND.t1131 sky130_fd_pr__nfet_01v8 ad=0.0725 pd=0.79 as=0.2304 ps=2.18 w=0.5 l=0.15
X115 VGND.t926 XThR.XTBN.Y XThR.Tn[7].t7 VGND.t925 sky130_fd_pr__nfet_01v8 ad=0.08775 pd=0.92 as=0.08775 ps=0.92 w=0.65 l=0.15
X116 XA.XIR[4].XIC[5].icell.PDM XThR.Tn[4].t15 XA.XIR[4].XIC[5].icell.Ien VGND.t700 sky130_fd_pr__nfet_01v8 ad=0.0725 pd=0.79 as=0.2304 ps=2.18 w=0.5 l=0.15
X117 a_n1319_5317# XThR.XTB7.A VPWR.t691 VPWR.t690 sky130_fd_pr__pfet_01v8_hvt ad=0.105 pd=1.21 as=0.26 ps=2.52 w=1 l=0.15
X118 XA.XIR[8].XIC[2].icell.PDM XThR.Tn[8].t15 XA.XIR[8].XIC[2].icell.Ien VGND.t570 sky130_fd_pr__nfet_01v8 ad=0.0725 pd=0.79 as=0.2304 ps=2.18 w=0.5 l=0.15
X119 XA.XIR[1].XIC_dummy_left.icell.SM XA.XIR[1].XIC_dummy_left.icell.Ien XA.XIR[1].XIC_dummy_left.icell.Iout VGND.t2050 sky130_fd_pr__nfet_g5v0d10v5 ad=0.0625 pd=0.75 as=0.175 ps=1.7 w=0.5 l=0.5
X120 VPWR.t642 XThR.Tn[13].t12 XA.XIR[14].XIC[14].icell.PUM VPWR.t641 sky130_fd_pr__pfet_01v8 ad=0.135 pd=1.54 as=0.0675 ps=0.77 w=0.5 l=0.15
X121 XA.XIR[11].XIC[3].icell.PDM XThR.Tn[11].t15 XA.XIR[11].XIC[3].icell.Ien VGND.t2093 sky130_fd_pr__nfet_01v8 ad=0.0725 pd=0.79 as=0.2304 ps=2.18 w=0.5 l=0.15
X122 XA.XIR[7].XIC[8].icell.PUM XThC.Tn[8].t12 XA.XIR[7].XIC[8].icell.Ien VPWR.t772 sky130_fd_pr__pfet_01v8 ad=0.0675 pd=0.77 as=0.0725 ps=0.79 w=0.5 l=0.15
X123 XThC.Tn[9].t11 XThC.XTB2.Y VPWR.t1772 VPWR.t35 sky130_fd_pr__pfet_01v8_hvt ad=0.135 pd=1.27 as=0.135 ps=1.27 w=1 l=0.15
X124 XA.XIR[15].XIC[4].icell.Ien VPWR.t1442 VPWR.t1444 VPWR.t1443 sky130_fd_pr__pfet_01v8 ad=0.0725 pd=0.79 as=0.15 ps=1.6 w=0.5 l=0.15
X125 VGND.t2009 VGND.t2007 XA.XIR[13].XIC_dummy_left.icell.SM VGND.t2008 sky130_fd_pr__nfet_g5v0d10v5 ad=0.175 pd=1.7 as=0.0625 ps=0.75 w=0.5 l=0.5
X126 XA.XIR[10].XIC_dummy_right.icell.Ien VPWR.t1439 VPWR.t1441 VPWR.t1440 sky130_fd_pr__pfet_01v8 ad=0.0725 pd=0.79 as=0.15 ps=1.6 w=0.5 l=0.15
X127 XThC.Tn[5].t2 XThC.XTBN.Y.t11 VGND.t2592 VGND.t39 sky130_fd_pr__nfet_01v8 ad=0.08775 pd=0.92 as=0.08775 ps=0.92 w=0.65 l=0.15
X128 VGND.t1234 XThC.Tn[6].t14 XA.XIR[6].XIC[6].icell.PDM VGND.t1233 sky130_fd_pr__nfet_01v8 ad=0.0725 pd=0.79 as=0.0725 ps=0.79 w=0.5 l=0.15
X129 VPWR.t450 XThR.Tn[8].t16 XA.XIR[9].XIC[4].icell.PUM VPWR.t449 sky130_fd_pr__pfet_01v8 ad=0.135 pd=1.54 as=0.0675 ps=0.77 w=0.5 l=0.15
X130 VGND.t313 Vbias.t17 XA.XIR[4].XIC[10].icell.SM VGND.t312 sky130_fd_pr__nfet_g5v0d10v5 ad=0.175 pd=1.7 as=0.0625 ps=0.75 w=0.5 l=0.5
X131 VPWR.t870 XThR.Tn[12].t15 XA.XIR[13].XIC[12].icell.PUM VPWR.t869 sky130_fd_pr__pfet_01v8 ad=0.135 pd=1.54 as=0.0675 ps=0.77 w=0.5 l=0.15
X132 XThR.Tn[9].t7 XThR.XTB2.Y a_n997_3755# VGND.t947 sky130_fd_pr__nfet_01v8 ad=0.08775 pd=0.92 as=0.169 ps=1.82 w=0.65 l=0.15
X133 XThC.Tn[0].t2 XThC.XTBN.Y.t12 a_2979_9615# VPWR.t1890 sky130_fd_pr__pfet_01v8_hvt ad=0.135 pd=1.27 as=0.135 ps=1.27 w=1 l=0.15
X134 XA.XIR[4].XIC_dummy_left.icell.PDM VPWR.t1932 VGND.t1816 VGND.t1815 sky130_fd_pr__nfet_01v8 ad=0.1312 pd=1.54 as=0.0725 ps=0.79 w=0.5 l=0.15
X135 VGND.t315 Vbias.t18 XA.XIR[11].XIC[8].icell.SM VGND.t314 sky130_fd_pr__nfet_g5v0d10v5 ad=0.175 pd=1.7 as=0.0625 ps=0.75 w=0.5 l=0.5
X136 XThC.Tn[5].t6 XThC.XTBN.Y.t13 a_5949_9615# VPWR.t104 sky130_fd_pr__pfet_01v8_hvt ad=0.135 pd=1.27 as=0.27 ps=2.54 w=1 l=0.15
X137 VGND.t2263 XThC.XTB5.Y XThC.Tn[4].t10 VGND.t132 sky130_fd_pr__nfet_01v8 ad=0.08775 pd=0.92 as=0.08775 ps=0.92 w=0.65 l=0.15
X138 XA.XIR[14].XIC[1].icell.PUM XThC.Tn[1].t14 XA.XIR[14].XIC[1].icell.Ien VPWR.t1674 sky130_fd_pr__pfet_01v8 ad=0.0675 pd=0.77 as=0.0725 ps=0.79 w=0.5 l=0.15
X139 a_9827_9569# XThC.XTB5.Y XThC.Tn[12].t11 VGND.t36 sky130_fd_pr__nfet_01v8 ad=0.169 pd=1.82 as=0.08775 ps=0.92 w=0.65 l=0.15
X140 VGND.t317 Vbias.t19 XA.XIR[1].XIC[0].icell.SM VGND.t316 sky130_fd_pr__nfet_g5v0d10v5 ad=0.175 pd=1.7 as=0.0625 ps=0.75 w=0.5 l=0.5
X141 XA.XIR[15].XIC_15.icell.SM XA.XIR[15].XIC_15.icell.Ien Iout.t148 VGND.t1335 sky130_fd_pr__nfet_g5v0d10v5 ad=0.0625 pd=0.75 as=0.175 ps=1.7 w=0.5 l=0.5
X142 XA.XIR[13].XIC[0].icell.PUM XThC.Tn[0].t12 XA.XIR[13].XIC[0].icell.Ien VPWR.t881 sky130_fd_pr__pfet_01v8 ad=0.0675 pd=0.77 as=0.0725 ps=0.79 w=0.5 l=0.15
X143 XThC.Tn[7].t7 XThC.XTBN.Y.t14 VGND.t2594 VGND.t2593 sky130_fd_pr__nfet_01v8 ad=0.08775 pd=0.92 as=0.169 ps=1.82 w=0.65 l=0.15
X144 XThC.Tn[2].t6 XThC.XTBN.Y.t15 VGND.t2595 VGND.t126 sky130_fd_pr__nfet_01v8 ad=0.08775 pd=0.92 as=0.169 ps=1.82 w=0.65 l=0.15
X145 VGND.t1585 XThC.Tn[10].t13 XA.XIR[0].XIC[10].icell.PDM VGND.t1584 sky130_fd_pr__nfet_01v8 ad=0.0725 pd=0.79 as=0.0725 ps=0.79 w=0.5 l=0.15
X146 a_n997_1579# XThR.XTBN.Y VGND.t924 VGND.t908 sky130_fd_pr__nfet_01v8 ad=0.08775 pd=0.92 as=0.08775 ps=0.92 w=0.65 l=0.15
X147 XA.XIR[6].XIC[14].icell.PDM XThR.Tn[5].t13 VGND.t1384 VGND.t1383 sky130_fd_pr__nfet_01v8 ad=0.1312 pd=1.54 as=0.0725 ps=0.79 w=0.5 l=0.15
X148 XA.XIR[6].XIC[8].icell.PDM XThR.Tn[5].t14 VGND.t1386 VGND.t1385 sky130_fd_pr__nfet_01v8 ad=0.1312 pd=1.54 as=0.0725 ps=0.79 w=0.5 l=0.15
X149 XA.XIR[10].XIC_dummy_left.icell.PUM VPWR.t1437 XA.XIR[10].XIC_dummy_left.icell.Ien VPWR.t1438 sky130_fd_pr__pfet_01v8 ad=0.0675 pd=0.77 as=0.0725 ps=0.79 w=0.5 l=0.15
X150 VGND.t319 Vbias.t20 XA.XIR[4].XIC[1].icell.SM VGND.t318 sky130_fd_pr__nfet_g5v0d10v5 ad=0.175 pd=1.7 as=0.0625 ps=0.75 w=0.5 l=0.5
X151 VGND.t1340 XThC.Tn[4].t14 XA.XIR[14].XIC[4].icell.PDM VGND.t1339 sky130_fd_pr__nfet_01v8 ad=0.0725 pd=0.79 as=0.0725 ps=0.79 w=0.5 l=0.15
X152 XA.XIR[11].XIC[6].icell.SM XA.XIR[11].XIC[6].icell.Ien Iout.t133 VGND.t1226 sky130_fd_pr__nfet_g5v0d10v5 ad=0.0625 pd=0.75 as=0.175 ps=1.7 w=0.5 l=0.5
X153 XA.XIR[8].XIC[6].icell.PDM XThR.Tn[8].t17 XA.XIR[8].XIC[6].icell.Ien VGND.t758 sky130_fd_pr__nfet_01v8 ad=0.0725 pd=0.79 as=0.2304 ps=2.18 w=0.5 l=0.15
X154 XA.XIR[1].XIC[7].icell.PUM XThC.Tn[7].t9 XA.XIR[1].XIC[7].icell.Ien VPWR.t841 sky130_fd_pr__pfet_01v8 ad=0.0675 pd=0.77 as=0.0725 ps=0.79 w=0.5 l=0.15
X155 VGND.t321 Vbias.t21 XA.XIR[2].XIC[14].icell.SM VGND.t320 sky130_fd_pr__nfet_g5v0d10v5 ad=0.175 pd=1.7 as=0.0625 ps=0.75 w=0.5 l=0.5
X156 XA.XIR[7].XIC[1].icell.PDM XThR.Tn[6].t16 VGND.t578 VGND.t577 sky130_fd_pr__nfet_01v8 ad=0.1312 pd=1.54 as=0.0725 ps=0.79 w=0.5 l=0.15
X157 XA.XIR[2].XIC[5].icell.PDM XThR.Tn[1].t16 VGND.t1080 VGND.t1079 sky130_fd_pr__nfet_01v8 ad=0.1312 pd=1.54 as=0.0725 ps=0.79 w=0.5 l=0.15
X158 XA.XIR[11].XIC[7].icell.PDM XThR.Tn[11].t16 XA.XIR[11].XIC[7].icell.Ien VGND.t2094 sky130_fd_pr__nfet_01v8 ad=0.0725 pd=0.79 as=0.2304 ps=2.18 w=0.5 l=0.15
X159 XA.XIR[4].XIC[8].icell.PUM XThC.Tn[8].t13 XA.XIR[4].XIC[8].icell.Ien VPWR.t773 sky130_fd_pr__pfet_01v8 ad=0.0675 pd=0.77 as=0.0725 ps=0.79 w=0.5 l=0.15
X160 XA.XIR[13].XIC[2].icell.SM XA.XIR[13].XIC[2].icell.Ien Iout.t221 VGND.t2403 sky130_fd_pr__nfet_g5v0d10v5 ad=0.0625 pd=0.75 as=0.175 ps=1.7 w=0.5 l=0.5
X161 XA.XIR[9].XIC[3].icell.PDM XThR.Tn[8].t18 VGND.t760 VGND.t759 sky130_fd_pr__nfet_01v8 ad=0.1312 pd=1.54 as=0.0725 ps=0.79 w=0.5 l=0.15
X162 XA.XIR[14].XIC[9].icell.PDM XThR.Tn[13].t13 VGND.t1519 VGND.t1518 sky130_fd_pr__nfet_01v8 ad=0.1312 pd=1.54 as=0.0725 ps=0.79 w=0.5 l=0.15
X163 XA.XIR[11].XIC[12].icell.PUM XThC.Tn[12].t13 XA.XIR[11].XIC[12].icell.Ien VPWR.t925 sky130_fd_pr__pfet_01v8 ad=0.0675 pd=0.77 as=0.0725 ps=0.79 w=0.5 l=0.15
X164 XA.XIR[12].XIC[4].icell.Ien XThR.Tn[12].t16 VPWR.t872 VPWR.t871 sky130_fd_pr__pfet_01v8 ad=0.0725 pd=0.79 as=0.15 ps=1.6 w=0.5 l=0.15
X165 XA.XIR[15].XIC[0].icell.Ien VPWR.t1434 VPWR.t1436 VPWR.t1435 sky130_fd_pr__pfet_01v8 ad=0.0725 pd=0.79 as=0.15 ps=1.6 w=0.5 l=0.15
X166 VGND.t1478 XThC.Tn[14].t13 XA.XIR[8].XIC[14].icell.PDM VGND.t1477 sky130_fd_pr__nfet_01v8 ad=0.0725 pd=0.79 as=0.0725 ps=0.79 w=0.5 l=0.15
X167 XA.XIR[7].XIC_dummy_right.icell.Ien VPWR.t1431 VPWR.t1433 VPWR.t1432 sky130_fd_pr__pfet_01v8 ad=0.0725 pd=0.79 as=0.15 ps=1.6 w=0.5 l=0.15
X168 XA.XIR[4].XIC[0].icell.PDM XThR.Tn[4].t16 XA.XIR[4].XIC[0].icell.Ien VGND.t701 sky130_fd_pr__nfet_01v8 ad=0.0725 pd=0.79 as=0.2304 ps=2.18 w=0.5 l=0.15
X169 VGND.t1144 XThC.Tn[8].t14 XA.XIR[8].XIC[8].icell.PDM VGND.t1143 sky130_fd_pr__nfet_01v8 ad=0.0725 pd=0.79 as=0.0725 ps=0.79 w=0.5 l=0.15
X170 XA.XIR[14].XIC[14].icell.Ien XThR.Tn[14].t13 VPWR.t1714 VPWR.t1713 sky130_fd_pr__pfet_01v8 ad=0.0725 pd=0.79 as=0.15 ps=1.6 w=0.5 l=0.15
X171 VGND.t2596 XThC.XTBN.Y.t16 XThC.Tn[1].t7 VGND.t130 sky130_fd_pr__nfet_01v8 ad=0.08775 pd=0.92 as=0.08775 ps=0.92 w=0.65 l=0.15
X172 XA.XIR[0].XIC[8].icell.SM XA.XIR[0].XIC[8].icell.Ien Iout.t226 VGND.t2409 sky130_fd_pr__nfet_g5v0d10v5 ad=0.0625 pd=0.75 as=0.175 ps=1.7 w=0.5 l=0.5
X173 VPWR.t874 XThR.Tn[12].t17 XA.XIR[13].XIC[10].icell.PUM VPWR.t873 sky130_fd_pr__pfet_01v8 ad=0.135 pd=1.54 as=0.0675 ps=0.77 w=0.5 l=0.15
X174 VGND.t323 Vbias.t22 XA.XIR[5].XIC[7].icell.SM VGND.t322 sky130_fd_pr__nfet_g5v0d10v5 ad=0.175 pd=1.7 as=0.0625 ps=0.75 w=0.5 l=0.5
X175 XA.XIR[7].XIC[3].icell.PUM XThC.Tn[3].t13 XA.XIR[7].XIC[3].icell.Ien VPWR.t400 sky130_fd_pr__pfet_01v8 ad=0.0675 pd=0.77 as=0.0725 ps=0.79 w=0.5 l=0.15
X176 XA.XIR[2].XIC_15.icell.PUM VPWR.t1429 XA.XIR[2].XIC_15.icell.Ien VPWR.t1430 sky130_fd_pr__pfet_01v8 ad=0.0675 pd=0.77 as=0.0725 ps=0.79 w=0.5 l=0.15
X177 XA.XIR[2].XIC[13].icell.PDM XThR.Tn[2].t15 XA.XIR[2].XIC[13].icell.Ien VGND.t1873 sky130_fd_pr__nfet_01v8 ad=0.0725 pd=0.79 as=0.2304 ps=2.18 w=0.5 l=0.15
X178 VPWR.t759 XThR.Tn[9].t15 XA.XIR[10].XIC[12].icell.PUM VPWR.t758 sky130_fd_pr__pfet_01v8 ad=0.135 pd=1.54 as=0.0675 ps=0.77 w=0.5 l=0.15
X179 VPWR.t452 XThR.Tn[8].t19 XA.XIR[9].XIC[0].icell.PUM VPWR.t451 sky130_fd_pr__pfet_01v8 ad=0.135 pd=1.54 as=0.0675 ps=0.77 w=0.5 l=0.15
X180 XA.XIR[1].XIC_dummy_left.icell.PDM VPWR.t1933 VGND.t1814 VGND.t1813 sky130_fd_pr__nfet_01v8 ad=0.1312 pd=1.54 as=0.0725 ps=0.79 w=0.5 l=0.15
X181 VPWR.t1428 VPWR.t1426 XA.XIR[6].XIC_dummy_left.icell.PUM VPWR.t1427 sky130_fd_pr__pfet_01v8 ad=0.135 pd=1.54 as=0.0675 ps=0.77 w=0.5 l=0.15
X182 VGND.t325 Vbias.t23 XA.XIR[8].XIC[8].icell.SM VGND.t324 sky130_fd_pr__nfet_g5v0d10v5 ad=0.175 pd=1.7 as=0.0625 ps=0.75 w=0.5 l=0.5
X183 VGND.t2006 VGND.t2004 XA.XIR[12].XIC_dummy_right.icell.SM VGND.t2005 sky130_fd_pr__nfet_g5v0d10v5 ad=0.175 pd=1.7 as=0.0625 ps=0.75 w=0.5 l=0.5
X184 VPWR.t1891 XThC.XTBN.Y.t17 XThC.Tn[10].t11 VPWR.t38 sky130_fd_pr__pfet_01v8_hvt ad=0.135 pd=1.27 as=0.135 ps=1.27 w=1 l=0.15
X185 VGND.t923 XThR.XTBN.Y XThR.Tn[3].t10 VGND.t886 sky130_fd_pr__nfet_01v8 ad=0.169 pd=1.82 as=0.08775 ps=0.92 w=0.65 l=0.15
X186 XA.XIR[3].XIC[11].icell.PDM XThR.Tn[2].t16 VGND.t1872 VGND.t1871 sky130_fd_pr__nfet_01v8 ad=0.1312 pd=1.54 as=0.0725 ps=0.79 w=0.5 l=0.15
X187 XA.XIR[6].XIC[8].icell.Ien XThR.Tn[6].t17 VPWR.t303 VPWR.t302 sky130_fd_pr__pfet_01v8 ad=0.0725 pd=0.79 as=0.15 ps=1.6 w=0.5 l=0.15
X188 XThR.Tn[0].t5 XThR.XTBN.Y a_n1049_8581# VPWR.t529 sky130_fd_pr__pfet_01v8_hvt ad=0.135 pd=1.27 as=0.135 ps=1.27 w=1 l=0.15
X189 XA.XIR[13].XIC[12].icell.Ien XThR.Tn[13].t14 VPWR.t1051 VPWR.t1050 sky130_fd_pr__pfet_01v8 ad=0.0725 pd=0.79 as=0.15 ps=1.6 w=0.5 l=0.15
X190 VPWR.t551 VGND.t2688 XA.XIR[0].XIC[8].icell.PUM VPWR.t550 sky130_fd_pr__pfet_01v8 ad=0.135 pd=1.54 as=0.0675 ps=0.77 w=0.5 l=0.15
X191 XA.XIR[5].XIC[5].icell.SM XA.XIR[5].XIC[5].icell.Ien Iout.t141 VGND.t1301 sky130_fd_pr__nfet_g5v0d10v5 ad=0.0625 pd=0.75 as=0.175 ps=1.7 w=0.5 l=0.5
X192 VGND.t327 Vbias.t24 XA.XIR[11].XIC[3].icell.SM VGND.t326 sky130_fd_pr__nfet_g5v0d10v5 ad=0.175 pd=1.7 as=0.0625 ps=0.75 w=0.5 l=0.5
X193 XA.XIR[10].XIC[14].icell.PDM XThR.Tn[10].t13 XA.XIR[10].XIC[14].icell.Ien VGND.t2671 sky130_fd_pr__nfet_01v8 ad=0.0725 pd=0.79 as=0.2304 ps=2.18 w=0.5 l=0.15
X194 XA.XIR[10].XIC[8].icell.PDM XThR.Tn[10].t14 XA.XIR[10].XIC[8].icell.Ien VGND.t2672 sky130_fd_pr__nfet_01v8 ad=0.0725 pd=0.79 as=0.2304 ps=2.18 w=0.5 l=0.15
X195 XA.XIR[11].XIC[10].icell.SM XA.XIR[11].XIC[10].icell.Ien Iout.t122 VGND.t1161 sky130_fd_pr__nfet_g5v0d10v5 ad=0.0625 pd=0.75 as=0.175 ps=1.7 w=0.5 l=0.5
X196 XThC.Tn[12].t6 XThC.XTB5.Y VPWR.t1687 VPWR.t40 sky130_fd_pr__pfet_01v8_hvt ad=0.135 pd=1.27 as=0.135 ps=1.27 w=1 l=0.15
X197 XA.XIR[1].XIC[11].icell.PUM XThC.Tn[11].t14 XA.XIR[1].XIC[11].icell.Ien VPWR.t899 sky130_fd_pr__pfet_01v8 ad=0.0675 pd=0.77 as=0.0725 ps=0.79 w=0.5 l=0.15
X198 XThR.Tn[11].t7 XThR.XTBN.Y VPWR.t528 VPWR.t517 sky130_fd_pr__pfet_01v8_hvt ad=0.135 pd=1.27 as=0.135 ps=1.27 w=1 l=0.15
X199 XA.XIR[0].XIC[7].icell.Ien XThR.Tn[0].t14 VPWR.t693 VPWR.t692 sky130_fd_pr__pfet_01v8 ad=0.0725 pd=0.79 as=0.15 ps=1.6 w=0.5 l=0.15
X200 XA.XIR[8].XIC[6].icell.SM XA.XIR[8].XIC[6].icell.Ien Iout.t22 VGND.t112 sky130_fd_pr__nfet_g5v0d10v5 ad=0.0625 pd=0.75 as=0.175 ps=1.7 w=0.5 l=0.5
X201 XA.XIR[3].XIC[2].icell.PDM XThR.Tn[2].t17 VGND.t1870 VGND.t1869 sky130_fd_pr__nfet_01v8 ad=0.1312 pd=1.54 as=0.0725 ps=0.79 w=0.5 l=0.15
X202 XA.XIR[8].XIC[9].icell.PUM XThC.Tn[9].t14 XA.XIR[8].XIC[9].icell.Ien VPWR.t1033 sky130_fd_pr__pfet_01v8 ad=0.0675 pd=0.77 as=0.0725 ps=0.79 w=0.5 l=0.15
X203 VGND.t2003 VGND.t2001 XA.XIR[9].XIC_dummy_right.icell.SM VGND.t2002 sky130_fd_pr__nfet_g5v0d10v5 ad=0.175 pd=1.7 as=0.0625 ps=0.75 w=0.5 l=0.5
X204 XA.XIR[9].XIC[7].icell.PDM XThR.Tn[8].t20 VGND.t762 VGND.t761 sky130_fd_pr__nfet_01v8 ad=0.1312 pd=1.54 as=0.0725 ps=0.79 w=0.5 l=0.15
X205 XA.XIR[6].XIC[3].icell.PDM XThR.Tn[5].t15 VGND.t1388 VGND.t1387 sky130_fd_pr__nfet_01v8 ad=0.1312 pd=1.54 as=0.0725 ps=0.79 w=0.5 l=0.15
X206 VGND.t1280 XThC.Tn[11].t15 XA.XIR[5].XIC[11].icell.PDM VGND.t1279 sky130_fd_pr__nfet_01v8 ad=0.0725 pd=0.79 as=0.0725 ps=0.79 w=0.5 l=0.15
X207 XA.XIR[11].XIC[10].icell.PUM XThC.Tn[10].t14 XA.XIR[11].XIC[10].icell.Ien VPWR.t112 sky130_fd_pr__pfet_01v8 ad=0.0675 pd=0.77 as=0.0725 ps=0.79 w=0.5 l=0.15
X208 XThR.Tn[2].t8 XThR.XTBN.Y VGND.t922 VGND.t875 sky130_fd_pr__nfet_01v8 ad=0.08775 pd=0.92 as=0.08775 ps=0.92 w=0.65 l=0.15