* NGSPICE file created from csdac255_parax.ext - technology: sky130A

.subckt csdac255_parax Iout VPWR VGND Vbias data[0] data[1] data[2] data[3] data[4]
+ data[5] data[6] data[7] bias[0] bias[1] bias[2]
X0 XA.XIR[2].XIC_dummy_right.icell.SM XA.XIR[2].XIC_dummy_right.icell.Ien XA.XIR[2].XIC_dummy_right.icell.Iout VGND.t1875 sky130_fd_pr__nfet_g5v0d10v5 ad=0.0625 pd=0.75 as=0.175 ps=1.7 w=0.5 l=0.5
X1 VPWR.t1499 XThR.Tn[2].t12 XA.XIR[3].XIC[8].icell.PUM VPWR.t1498 sky130_fd_pr__pfet_01v8 ad=0.135 pd=1.54 as=0.0675 ps=0.77 w=0.5 l=0.15
X2 XA.XIR[12].XIC[10].icell.SM XA.XIR[12].XIC[10].icell.Ien Iout.t237 VGND.t2201 sky130_fd_pr__nfet_g5v0d10v5 ad=0.0625 pd=0.75 as=0.175 ps=1.7 w=0.5 l=0.5
X3 XA.XIR[11].XIC_dummy_right.icell.Ien VPWR.t381 VPWR.t383 VPWR.t382 sky130_fd_pr__pfet_01v8 ad=0.0725 pd=0.79 as=0.15 ps=1.6 w=0.5 l=0.15
X4 VGND.t2464 XThC.Tn[10].t12 XA.XIR[4].XIC[10].icell.PDM VGND.t2463 sky130_fd_pr__nfet_01v8 ad=0.0725 pd=0.79 as=0.0725 ps=0.79 w=0.5 l=0.15
X5 VGND.t1239 XThR.XTBN.Y a_n997_2667# VGND.t1201 sky130_fd_pr__nfet_01v8 ad=0.08775 pd=0.92 as=0.08775 ps=0.92 w=0.65 l=0.15
X6 VPWR.t1414 XThR.Tn[6].t12 XA.XIR[7].XIC[8].icell.PUM VPWR.t1413 sky130_fd_pr__pfet_01v8 ad=0.135 pd=1.54 as=0.0675 ps=0.77 w=0.5 l=0.15
X7 XA.XIR[14].XIC[5].icell.Ien XThR.Tn[14].t12 VPWR.t1870 VPWR.t1869 sky130_fd_pr__pfet_01v8 ad=0.0725 pd=0.79 as=0.15 ps=1.6 w=0.5 l=0.15
X8 XA.XIR[12].XIC[6].icell.PDM XThR.Tn[12].t12 XA.XIR[12].XIC[6].icell.Ien VGND.t2575 sky130_fd_pr__nfet_01v8 ad=0.0725 pd=0.79 as=0.2304 ps=2.18 w=0.5 l=0.15
X9 XThC.Tn[6].t7 XThC.XTBN.Y.t4 VGND.t159 VGND.t158 sky130_fd_pr__nfet_01v8 ad=0.08775 pd=0.92 as=0.169 ps=1.82 w=0.65 l=0.15
X10 XA.XIR[5].XIC_dummy_left.icell.PDM VPWR.t1926 VGND.t1857 VGND.t1856 sky130_fd_pr__nfet_01v8 ad=0.1312 pd=1.54 as=0.0725 ps=0.79 w=0.5 l=0.15
X11 XA.XIR[10].XIC[2].icell.PDM XThR.Tn[9].t12 VGND.t1662 VGND.t1661 sky130_fd_pr__nfet_01v8 ad=0.1312 pd=1.54 as=0.0725 ps=0.79 w=0.5 l=0.15
X12 VGND.t160 XThC.XTBN.Y.t5 XThC.Tn[5].t3 VGND.t135 sky130_fd_pr__nfet_01v8 ad=0.08775 pd=0.92 as=0.08775 ps=0.92 w=0.65 l=0.15
X13 XA.XIR[15].XIC[9].icell.PUM XThC.Tn[9].t12 XA.XIR[15].XIC[9].icell.Ien VPWR.t803 sky130_fd_pr__pfet_01v8 ad=0.0675 pd=0.77 as=0.0725 ps=0.79 w=0.5 l=0.15
X14 XA.XIR[9].XIC[0].icell.SM XA.XIR[9].XIC[0].icell.Ien Iout.t124 VGND.t1276 sky130_fd_pr__nfet_g5v0d10v5 ad=0.0625 pd=0.75 as=0.175 ps=1.7 w=0.5 l=0.5
X15 XA.XIR[13].XIC[3].icell.PDM XThR.Tn[12].t13 VGND.t2577 VGND.t2576 sky130_fd_pr__nfet_01v8 ad=0.1312 pd=1.54 as=0.0725 ps=0.79 w=0.5 l=0.15
X16 VGND.t446 XThC.Tn[11].t12 XA.XIR[12].XIC[11].icell.PDM VGND.t445 sky130_fd_pr__nfet_01v8 ad=0.0725 pd=0.79 as=0.0725 ps=0.79 w=0.5 l=0.15
X17 XA.XIR[12].XIC[1].icell.SM XA.XIR[12].XIC[1].icell.Ien Iout.t205 VGND.t1903 sky130_fd_pr__nfet_g5v0d10v5 ad=0.0625 pd=0.75 as=0.175 ps=1.7 w=0.5 l=0.5
X18 XA.XIR[8].XIC[12].icell.SM XA.XIR[8].XIC[12].icell.Ien Iout.t200 VGND.t1845 sky130_fd_pr__nfet_g5v0d10v5 ad=0.0625 pd=0.75 as=0.175 ps=1.7 w=0.5 l=0.5
X19 XThC.Tn[12].t3 XThC.XTB5.Y VPWR.t438 VPWR.t431 sky130_fd_pr__pfet_01v8_hvt ad=0.135 pd=1.27 as=0.135 ps=1.27 w=1 l=0.15
X20 XA.XIR[8].XIC_15.icell.PDM VPWR.t1927 VGND.t1859 VGND.t1858 sky130_fd_pr__nfet_01v8 ad=0.1312 pd=1.54 as=0.0725 ps=0.79 w=0.5 l=0.15
X21 XA.XIR[7].XIC[13].icell.SM XA.XIR[7].XIC[13].icell.Ien Iout.t61 VGND.t562 sky130_fd_pr__nfet_g5v0d10v5 ad=0.0625 pd=0.75 as=0.175 ps=1.7 w=0.5 l=0.5
X22 XA.XIR[14].XIC[13].icell.PUM XThC.Tn[13].t12 XA.XIR[14].XIC[13].icell.Ien VPWR.t1623 sky130_fd_pr__pfet_01v8 ad=0.0675 pd=0.77 as=0.0725 ps=0.79 w=0.5 l=0.15
X23 a_2979_9615# XThC.XTBN.Y.t6 XThC.Tn[0].t7 VPWR.t484 sky130_fd_pr__pfet_01v8_hvt ad=0.135 pd=1.27 as=0.135 ps=1.27 w=1 l=0.15
X24 XA.XIR[11].XIC_dummy_left.icell.PUM VPWR.t379 XA.XIR[11].XIC_dummy_left.icell.Ien VPWR.t380 sky130_fd_pr__pfet_01v8 ad=0.0675 pd=0.77 as=0.0725 ps=0.79 w=0.5 l=0.15
X25 XA.XIR[10].XIC[14].icell.SM XA.XIR[10].XIC[14].icell.Ien Iout.t60 VGND.t561 sky130_fd_pr__nfet_g5v0d10v5 ad=0.0625 pd=0.75 as=0.175 ps=1.7 w=0.5 l=0.5
X26 a_4861_9615# XThC.XTB4.Y.t2 VPWR.t1873 VPWR.t597 sky130_fd_pr__pfet_01v8_hvt ad=0.135 pd=1.27 as=0.135 ps=1.27 w=1 l=0.15
X27 a_5949_9615# XThC.XTBN.Y.t7 XThC.Tn[5].t7 VPWR.t460 sky130_fd_pr__pfet_01v8_hvt ad=0.135 pd=1.27 as=0.135 ps=1.27 w=1 l=0.15
X28 XA.XIR[6].XIC[10].icell.PDM XThR.Tn[6].t13 XA.XIR[6].XIC[10].icell.Ien VGND.t1838 sky130_fd_pr__nfet_01v8 ad=0.0725 pd=0.79 as=0.2304 ps=2.18 w=0.5 l=0.15
X29 XA.XIR[0].XIC[4].icell.PDM VGND.t1480 VGND.t1482 VGND.t1481 sky130_fd_pr__nfet_01v8 ad=0.1312 pd=1.54 as=0.0725 ps=0.79 w=0.5 l=0.15
X30 XA.XIR[4].XIC[12].icell.PDM XThR.Tn[3].t12 VGND.t2495 VGND.t2494 sky130_fd_pr__nfet_01v8 ad=0.1312 pd=1.54 as=0.0725 ps=0.79 w=0.5 l=0.15
X31 XThR.Tn[5].t3 XThR.XTBN.Y a_n1049_5611# VPWR.t1040 sky130_fd_pr__pfet_01v8_hvt ad=0.135 pd=1.27 as=0.135 ps=1.27 w=1 l=0.15
X32 XThC.Tn[4].t3 XThC.XTB5.Y VGND.t87 VGND.t83 sky130_fd_pr__nfet_01v8 ad=0.08775 pd=0.92 as=0.08775 ps=0.92 w=0.65 l=0.15
X33 VGND.t161 XThC.XTBN.Y.t8 XThC.Tn[2].t7 VGND.t113 sky130_fd_pr__nfet_01v8 ad=0.08775 pd=0.92 as=0.08775 ps=0.92 w=0.65 l=0.15
X34 XThR.XTB2.Y XThR.XTB6.A VPWR.t1209 VPWR.t1208 sky130_fd_pr__pfet_01v8_hvt ad=0.135 pd=1.27 as=0.26 ps=2.52 w=1 l=0.15
X35 XA.XIR[7].XIC[13].icell.PDM XThR.Tn[6].t14 VGND.t1840 VGND.t1839 sky130_fd_pr__nfet_01v8 ad=0.1312 pd=1.54 as=0.0725 ps=0.79 w=0.5 l=0.15
X36 XA.XIR[6].XIC[11].icell.SM XA.XIR[6].XIC[11].icell.Ien Iout.t115 VGND.t1242 sky130_fd_pr__nfet_g5v0d10v5 ad=0.0625 pd=0.75 as=0.175 ps=1.7 w=0.5 l=0.5
X37 VGND.t1633 XThC.Tn[2].t12 XA.XIR[12].XIC[2].icell.PDM VGND.t1632 sky130_fd_pr__nfet_01v8 ad=0.0725 pd=0.79 as=0.0725 ps=0.79 w=0.5 l=0.15
X38 VPWR.t378 VPWR.t376 XA.XIR[10].XIC_dummy_left.icell.PUM VPWR.t377 sky130_fd_pr__pfet_01v8 ad=0.135 pd=1.54 as=0.0675 ps=0.77 w=0.5 l=0.15
X39 VGND.t1861 VPWR.t1928 XA.XIR[7].XIC_dummy_left.icell.PDM VGND.t1860 sky130_fd_pr__nfet_01v8 ad=0.0725 pd=0.79 as=0.0725 ps=0.79 w=0.5 l=0.15
X40 VPWR.t1798 XThR.Tn[3].t13 XA.XIR[4].XIC[11].icell.PUM VPWR.t1797 sky130_fd_pr__pfet_01v8 ad=0.135 pd=1.54 as=0.0675 ps=0.77 w=0.5 l=0.15
X41 VGND.t323 Vbias.t6 XA.XIR[14].XIC[11].icell.SM VGND.t322 sky130_fd_pr__nfet_g5v0d10v5 ad=0.175 pd=1.7 as=0.0625 ps=0.75 w=0.5 l=0.5
X42 XA.XIR[2].XIC[1].icell.PUM XThC.Tn[1].t12 XA.XIR[2].XIC[1].icell.Ien VPWR.t1692 sky130_fd_pr__pfet_01v8 ad=0.0675 pd=0.77 as=0.0725 ps=0.79 w=0.5 l=0.15
X43 VGND.t2189 XThC.Tn[3].t12 XA.XIR[15].XIC[3].icell.PDM VGND.t2188 sky130_fd_pr__nfet_01v8 ad=0.0725 pd=0.79 as=0.0725 ps=0.79 w=0.5 l=0.15
X44 VGND.t1863 VPWR.t1929 XA.XIR[10].XIC_15.icell.PDM VGND.t1862 sky130_fd_pr__nfet_01v8 ad=0.0725 pd=0.79 as=0.0725 ps=0.79 w=0.5 l=0.15
X45 VPWR.t1197 XThR.Tn[10].t12 XA.XIR[11].XIC[9].icell.PUM VPWR.t1196 sky130_fd_pr__pfet_01v8 ad=0.135 pd=1.54 as=0.0675 ps=0.77 w=0.5 l=0.15
X46 XA.XIR[0].XIC[14].icell.PUM XThC.Tn[14].t12 XA.XIR[0].XIC[14].icell.Ien VPWR.t1383 sky130_fd_pr__pfet_01v8 ad=0.0675 pd=0.77 as=0.0725 ps=0.79 w=0.5 l=0.15
X47 XA.XIR[13].XIC_dummy_left.icell.Ien VPWR.t373 VPWR.t375 VPWR.t374 sky130_fd_pr__pfet_01v8 ad=0.0725 pd=0.79 as=0.15 ps=1.6 w=0.5 l=0.15
X48 a_7651_9569# XThC.XTB1.Y.t3 XThC.Tn[8].t11 VGND.t140 sky130_fd_pr__nfet_01v8 ad=0.08775 pd=0.92 as=0.08775 ps=0.92 w=0.65 l=0.15
X49 VGND.t325 Vbias.t7 XA.XIR[2].XIC[5].icell.SM VGND.t324 sky130_fd_pr__nfet_g5v0d10v5 ad=0.175 pd=1.7 as=0.0625 ps=0.75 w=0.5 l=0.5
X50 XA.XIR[1].XIC[6].icell.Ien XThR.Tn[1].t12 VPWR.t1162 VPWR.t1161 sky130_fd_pr__pfet_01v8 ad=0.0725 pd=0.79 as=0.15 ps=1.6 w=0.5 l=0.15
X51 a_10051_9569# XThC.XTB6.Y XThC.Tn[13].t11 VGND.t138 sky130_fd_pr__nfet_01v8 ad=0.169 pd=1.82 as=0.08775 ps=0.92 w=0.65 l=0.15
X52 VGND.t2131 XThC.Tn[4].t12 XA.XIR[2].XIC[4].icell.PDM VGND.t2130 sky130_fd_pr__nfet_01v8 ad=0.0725 pd=0.79 as=0.0725 ps=0.79 w=0.5 l=0.15
X53 XThC.XTB5.Y XThC.XTB7.B VGND.t1741 VGND.t83 sky130_fd_pr__nfet_01v8 ad=0.08775 pd=0.92 as=0.169 ps=1.82 w=0.65 l=0.15
X54 XThC.Tn[7].t3 XThC.XTBN.Y.t9 VPWR.t486 VPWR.t485 sky130_fd_pr__pfet_01v8_hvt ad=0.135 pd=1.27 as=0.26 ps=2.52 w=1 l=0.15
X55 XA.XIR[10].XIC[6].icell.PDM XThR.Tn[9].t13 VGND.t1664 VGND.t1663 sky130_fd_pr__nfet_01v8 ad=0.1312 pd=1.54 as=0.0725 ps=0.79 w=0.5 l=0.15
X56 VGND.t658 XThR.XTB7.Y XThR.Tn[6].t3 VGND.t657 sky130_fd_pr__nfet_01v8 ad=0.08775 pd=0.92 as=0.08775 ps=0.92 w=0.65 l=0.15
X57 XA.XIR[4].XIC[7].icell.Ien XThR.Tn[4].t12 VPWR.t1733 VPWR.t1732 sky130_fd_pr__pfet_01v8 ad=0.0725 pd=0.79 as=0.15 ps=1.6 w=0.5 l=0.15
X58 VPWR.t1104 XThR.XTBN.Y XThR.Tn[9].t3 VPWR.t1091 sky130_fd_pr__pfet_01v8_hvt ad=0.135 pd=1.27 as=0.135 ps=1.27 w=1 l=0.15
X59 XThR.XTB7.Y XThR.XTB7.A VGND.t2571 VGND.t2570 sky130_fd_pr__nfet_01v8 ad=0.08775 pd=0.92 as=0.169 ps=1.82 w=0.65 l=0.15
X60 XA.XIR[3].XIC[8].icell.Ien XThR.Tn[3].t14 VPWR.t1800 VPWR.t1799 sky130_fd_pr__pfet_01v8 ad=0.0725 pd=0.79 as=0.15 ps=1.6 w=0.5 l=0.15
X61 VPWR.t1802 XThR.Tn[3].t15 XA.XIR[4].XIC[2].icell.PUM VPWR.t1801 sky130_fd_pr__pfet_01v8 ad=0.135 pd=1.54 as=0.0675 ps=0.77 w=0.5 l=0.15
X62 XA.XIR[13].XIC[7].icell.PDM XThR.Tn[12].t14 VGND.t2579 VGND.t2578 sky130_fd_pr__nfet_01v8 ad=0.1312 pd=1.54 as=0.0725 ps=0.79 w=0.5 l=0.15
X63 XA.XIR[1].XIC[9].icell.PDM XThR.Tn[1].t13 XA.XIR[1].XIC[9].icell.Ien VGND.t1341 sky130_fd_pr__nfet_01v8 ad=0.0725 pd=0.79 as=0.2304 ps=2.18 w=0.5 l=0.15
X64 VPWR.t1497 XThR.Tn[2].t13 XA.XIR[3].XIC[3].icell.PUM VPWR.t1496 sky130_fd_pr__pfet_01v8 ad=0.135 pd=1.54 as=0.0675 ps=0.77 w=0.5 l=0.15
X65 XA.XIR[5].XIC_dummy_left.icell.SM XA.XIR[5].XIC_dummy_left.icell.Ien XA.XIR[5].XIC_dummy_left.icell.Iout VGND.t1548 sky130_fd_pr__nfet_g5v0d10v5 ad=0.0625 pd=0.75 as=0.175 ps=1.7 w=0.5 l=0.5
X66 VPWR.t1416 XThR.Tn[6].t15 XA.XIR[7].XIC[3].icell.PUM VPWR.t1415 sky130_fd_pr__pfet_01v8 ad=0.135 pd=1.54 as=0.0675 ps=0.77 w=0.5 l=0.15
X67 VPWR.t372 VPWR.t370 XA.XIR[2].XIC_15.icell.PUM VPWR.t371 sky130_fd_pr__pfet_01v8 ad=0.135 pd=1.54 as=0.0675 ps=0.77 w=0.5 l=0.15
X68 a_6243_9615# XThC.XTB7.Y VPWR.t1160 VPWR.t467 sky130_fd_pr__pfet_01v8_hvt ad=0.28 pd=2.56 as=0.135 ps=1.27 w=1 l=0.15
X69 XA.XIR[11].XIC[14].icell.PDM XThR.Tn[11].t12 XA.XIR[11].XIC[14].icell.Ien VGND.t1563 sky130_fd_pr__nfet_01v8 ad=0.0725 pd=0.79 as=0.2304 ps=2.18 w=0.5 l=0.15
X70 XA.XIR[11].XIC[8].icell.PDM XThR.Tn[11].t13 XA.XIR[11].XIC[8].icell.Ien VGND.t1564 sky130_fd_pr__nfet_01v8 ad=0.0725 pd=0.79 as=0.2304 ps=2.18 w=0.5 l=0.15
X71 XA.XIR[4].XIC[10].icell.PDM XThR.Tn[3].t16 VGND.t2497 VGND.t2496 sky130_fd_pr__nfet_01v8 ad=0.1312 pd=1.54 as=0.0725 ps=0.79 w=0.5 l=0.15
X72 XThR.Tn[7].t3 XThR.XTBN.Y VPWR.t1103 VPWR.t1102 sky130_fd_pr__pfet_01v8_hvt ad=0.135 pd=1.27 as=0.26 ps=2.52 w=1 l=0.15
X73 XA.XIR[1].XIC[12].icell.PDM XThR.Tn[0].t12 VGND.t1833 VGND.t1832 sky130_fd_pr__nfet_01v8 ad=0.1312 pd=1.54 as=0.0725 ps=0.79 w=0.5 l=0.15
X74 a_8963_9569# XThC.XTBN.Y.t10 VGND.t163 VGND.t162 sky130_fd_pr__nfet_01v8 ad=0.08775 pd=0.92 as=0.08775 ps=0.92 w=0.65 l=0.15
X75 VGND.t327 Vbias.t8 XA.XIR[12].XIC[7].icell.SM VGND.t326 sky130_fd_pr__nfet_g5v0d10v5 ad=0.175 pd=1.7 as=0.0625 ps=0.75 w=0.5 l=0.5
X76 VGND.t384 XThC.Tn[6].t12 XA.XIR[12].XIC[6].icell.PDM VGND.t383 sky130_fd_pr__nfet_01v8 ad=0.0725 pd=0.79 as=0.0725 ps=0.79 w=0.5 l=0.15
X77 XA.XIR[6].XIC[9].icell.SM XA.XIR[6].XIC[9].icell.Ien Iout.t185 VGND.t1781 sky130_fd_pr__nfet_g5v0d10v5 ad=0.0625 pd=0.75 as=0.175 ps=1.7 w=0.5 l=0.5
X78 XA.XIR[2].XIC_dummy_left.icell.SM XA.XIR[2].XIC_dummy_left.icell.Ien XA.XIR[2].XIC_dummy_left.icell.Iout VGND.t1325 sky130_fd_pr__nfet_g5v0d10v5 ad=0.0625 pd=0.75 as=0.175 ps=1.7 w=0.5 l=0.5
X79 XA.XIR[3].XIC[11].icell.SM XA.XIR[3].XIC[11].icell.Ien Iout.t111 VGND.t1142 sky130_fd_pr__nfet_g5v0d10v5 ad=0.0625 pd=0.75 as=0.175 ps=1.7 w=0.5 l=0.5
X80 VGND.t1865 VPWR.t1930 XA.XIR[4].XIC_dummy_left.icell.PDM VGND.t1864 sky130_fd_pr__nfet_01v8 ad=0.0725 pd=0.79 as=0.0725 ps=0.79 w=0.5 l=0.15
X81 VGND.t1238 XThR.XTBN.Y XThR.Tn[5].t7 VGND.t1221 sky130_fd_pr__nfet_01v8 ad=0.169 pd=1.82 as=0.08775 ps=0.92 w=0.65 l=0.15
X82 VGND.t329 Vbias.t9 XA.XIR[15].XIC[8].icell.SM VGND.t328 sky130_fd_pr__nfet_g5v0d10v5 ad=0.175 pd=1.7 as=0.0625 ps=0.75 w=0.5 l=0.5
X83 VGND.t1085 Vbias.t10 XA.XIR[14].XIC[9].icell.SM VGND.t1084 sky130_fd_pr__nfet_g5v0d10v5 ad=0.175 pd=1.7 as=0.0625 ps=0.75 w=0.5 l=0.5
X84 VGND.t2059 XThC.Tn[7].t8 XA.XIR[15].XIC[7].icell.PDM VGND.t2058 sky130_fd_pr__nfet_01v8 ad=0.0725 pd=0.79 as=0.0725 ps=0.79 w=0.5 l=0.15
X85 VGND.t448 XThC.Tn[11].t13 XA.XIR[6].XIC[11].icell.PDM VGND.t447 sky130_fd_pr__nfet_01v8 ad=0.0725 pd=0.79 as=0.0725 ps=0.79 w=0.5 l=0.15
X86 VGND.t2102 XThC.Tn[1].t13 XA.XIR[3].XIC[1].icell.PDM VGND.t2101 sky130_fd_pr__nfet_01v8 ad=0.0725 pd=0.79 as=0.0725 ps=0.79 w=0.5 l=0.15
X87 XA.XIR[4].XIC[11].icell.Ien XThR.Tn[4].t13 VPWR.t1735 VPWR.t1734 sky130_fd_pr__pfet_01v8 ad=0.0725 pd=0.79 as=0.15 ps=1.6 w=0.5 l=0.15
X88 VPWR.t1382 XThR.XTB6.Y a_n1049_5611# VPWR.t837 sky130_fd_pr__pfet_01v8_hvt ad=0.135 pd=1.27 as=0.28 ps=2.56 w=1 l=0.15
X89 XA.XIR[14].XIC[6].icell.PUM XThC.Tn[6].t13 XA.XIR[14].XIC[6].icell.Ien VPWR.t633 sky130_fd_pr__pfet_01v8 ad=0.0675 pd=0.77 as=0.0725 ps=0.79 w=0.5 l=0.15
X90 VGND.t1087 Vbias.t11 XA.XIR[9].XIC[7].icell.SM VGND.t1086 sky130_fd_pr__nfet_g5v0d10v5 ad=0.175 pd=1.7 as=0.0625 ps=0.75 w=0.5 l=0.5
X91 VGND.t1635 XThC.Tn[2].t13 XA.XIR[6].XIC[2].icell.PDM VGND.t1634 sky130_fd_pr__nfet_01v8 ad=0.0725 pd=0.79 as=0.0725 ps=0.79 w=0.5 l=0.15
X92 XA.XIR[11].XIC[9].icell.Ien XThR.Tn[11].t14 VPWR.t1224 VPWR.t1223 sky130_fd_pr__pfet_01v8 ad=0.0725 pd=0.79 as=0.15 ps=1.6 w=0.5 l=0.15
X93 XA.XIR[6].XIC_dummy_left.icell.PDM VPWR.t1931 XA.XIR[6].XIC_dummy_left.icell.Ien VGND.t1866 sky130_fd_pr__nfet_01v8 ad=0.0725 pd=0.79 as=0.2304 ps=2.18 w=0.5 l=0.15
X94 VGND.t321 Vbias.t0 Vbias.t1 VGND.t320 sky130_fd_pr__nfet_g5v0d10v5 ad=0.725 pd=5.58 as=0.725 ps=5.58 w=2.5 l=1
X95 a_n1049_7787# XThR.XTB2.Y VPWR.t1222 VPWR.t1221 sky130_fd_pr__pfet_01v8_hvt ad=0.135 pd=1.27 as=0.135 ps=1.27 w=1 l=0.15
X96 VGND.t556 XThC.Tn[9].t13 XA.XIR[14].XIC[9].icell.PDM VGND.t555 sky130_fd_pr__nfet_01v8 ad=0.0725 pd=0.79 as=0.0725 ps=0.79 w=0.5 l=0.15
X97 XA.XIR[8].XIC[11].icell.PDM XThR.Tn[8].t12 XA.XIR[8].XIC[11].icell.Ien VGND.t899 sky130_fd_pr__nfet_01v8 ad=0.0725 pd=0.79 as=0.2304 ps=2.18 w=0.5 l=0.15
X98 VGND.t1089 Vbias.t12 XA.XIR[2].XIC[0].icell.SM VGND.t1088 sky130_fd_pr__nfet_g5v0d10v5 ad=0.175 pd=1.7 as=0.0625 ps=0.75 w=0.5 l=0.5
X99 XA.XIR[1].XIC[1].icell.Ien XThR.Tn[1].t14 VPWR.t1567 VPWR.t1566 sky130_fd_pr__pfet_01v8 ad=0.0725 pd=0.79 as=0.15 ps=1.6 w=0.5 l=0.15
X100 XA.XIR[13].XIC[4].icell.PUM XThC.Tn[4].t13 XA.XIR[13].XIC[4].icell.Ien VPWR.t1713 sky130_fd_pr__pfet_01v8 ad=0.0675 pd=0.77 as=0.0725 ps=0.79 w=0.5 l=0.15
X101 XA.XIR[8].XIC_dummy_right.icell.PUM VPWR.t368 XA.XIR[8].XIC_dummy_right.icell.Ien VPWR.t369 sky130_fd_pr__pfet_01v8 ad=0.0675 pd=0.77 as=0.0725 ps=0.79 w=0.5 l=0.15
X102 VGND.t1091 Vbias.t13 XA.XIR[0].XIC[13].icell.SM VGND.t1090 sky130_fd_pr__nfet_g5v0d10v5 ad=0.175 pd=1.7 as=0.0625 ps=0.75 w=0.5 l=0.5
X103 XA.XIR[1].XIC[10].icell.PDM XThR.Tn[0].t13 VGND.t1835 VGND.t1834 sky130_fd_pr__nfet_01v8 ad=0.1312 pd=1.54 as=0.0725 ps=0.79 w=0.5 l=0.15
X104 XA.XIR[4].XIC[2].icell.Ien XThR.Tn[4].t14 VPWR.t1737 VPWR.t1736 sky130_fd_pr__pfet_01v8 ad=0.0725 pd=0.79 as=0.15 ps=1.6 w=0.5 l=0.15
X105 XA.XIR[9].XIC[14].icell.PDM XThR.Tn[8].t13 VGND.t901 VGND.t900 sky130_fd_pr__nfet_01v8 ad=0.1312 pd=1.54 as=0.0725 ps=0.79 w=0.5 l=0.15
X106 XA.XIR[9].XIC[8].icell.PDM XThR.Tn[8].t14 VGND.t1498 VGND.t1497 sky130_fd_pr__nfet_01v8 ad=0.1312 pd=1.54 as=0.0725 ps=0.79 w=0.5 l=0.15
X107 XA.XIR[3].XIC[3].icell.Ien XThR.Tn[3].t17 VPWR.t1804 VPWR.t1803 sky130_fd_pr__pfet_01v8 ad=0.0725 pd=0.79 as=0.15 ps=1.6 w=0.5 l=0.15
X108 VGND.t1700 XThC.Tn[12].t12 XA.XIR[0].XIC[12].icell.PDM VGND.t1699 sky130_fd_pr__nfet_01v8 ad=0.0725 pd=0.79 as=0.0725 ps=0.79 w=0.5 l=0.15
X109 VPWR.t1194 XThC.XTB3.Y.t3 a_4067_9615# VPWR.t832 sky130_fd_pr__pfet_01v8_hvt ad=0.135 pd=1.27 as=0.135 ps=1.27 w=1 l=0.15
X110 XA.XIR[1].XIC[4].icell.PDM XThR.Tn[1].t15 XA.XIR[1].XIC[4].icell.Ien VGND.t1937 sky130_fd_pr__nfet_01v8 ad=0.0725 pd=0.79 as=0.2304 ps=2.18 w=0.5 l=0.15
X111 XA.XIR[5].XIC[1].icell.PDM XThR.Tn[5].t12 XA.XIR[5].XIC[1].icell.Ien VGND.t359 sky130_fd_pr__nfet_01v8 ad=0.0725 pd=0.79 as=0.2304 ps=2.18 w=0.5 l=0.15
X112 VPWR.t1108 data[4].t0 a_n1335_4229# VPWR.t1107 sky130_fd_pr__pfet_01v8_hvt ad=0.26 pd=2.52 as=0.105 ps=1.21 w=1 l=0.15
X113 XA.XIR[2].XIC_15.icell.Ien XThR.Tn[2].t14 VPWR.t1495 VPWR.t1494 sky130_fd_pr__pfet_01v8 ad=0.0725 pd=0.79 as=0.15 ps=1.6 w=0.5 l=0.15
X114 XA.XIR[3].XIC[9].icell.SM XA.XIR[3].XIC[9].icell.Ien Iout.t56 VGND.t421 sky130_fd_pr__nfet_g5v0d10v5 ad=0.0625 pd=0.75 as=0.175 ps=1.7 w=0.5 l=0.5
X115 XA.XIR[9].XIC[1].icell.PDM XThR.Tn[9].t14 XA.XIR[9].XIC[1].icell.Ien VGND.t1618 sky130_fd_pr__nfet_01v8 ad=0.0725 pd=0.79 as=0.2304 ps=2.18 w=0.5 l=0.15
X116 VGND.t1237 XThR.XTBN.Y XThR.Tn[7].t7 VGND.t1236 sky130_fd_pr__nfet_01v8 ad=0.08775 pd=0.92 as=0.08775 ps=0.92 w=0.65 l=0.15
X117 XA.XIR[4].XIC[5].icell.PDM XThR.Tn[4].t15 XA.XIR[4].XIC[5].icell.Ien VGND.t2171 sky130_fd_pr__nfet_01v8 ad=0.0725 pd=0.79 as=0.2304 ps=2.18 w=0.5 l=0.15
X118 a_n1319_5317# XThR.XTB7.A VPWR.t1890 VPWR.t1206 sky130_fd_pr__pfet_01v8_hvt ad=0.105 pd=1.21 as=0.26 ps=2.52 w=1 l=0.15
X119 XA.XIR[8].XIC[2].icell.PDM XThR.Tn[8].t15 XA.XIR[8].XIC[2].icell.Ien VGND.t1499 sky130_fd_pr__nfet_01v8 ad=0.0725 pd=0.79 as=0.2304 ps=2.18 w=0.5 l=0.15
X120 VPWR.t684 XThR.Tn[13].t12 XA.XIR[14].XIC[14].icell.PUM VPWR.t683 sky130_fd_pr__pfet_01v8 ad=0.135 pd=1.54 as=0.0675 ps=0.77 w=0.5 l=0.15
X121 XA.XIR[11].XIC[3].icell.PDM XThR.Tn[11].t15 XA.XIR[11].XIC[3].icell.Ien VGND.t1882 sky130_fd_pr__nfet_01v8 ad=0.0725 pd=0.79 as=0.2304 ps=2.18 w=0.5 l=0.15
X122 XA.XIR[7].XIC[8].icell.PUM XThC.Tn[8].t12 XA.XIR[7].XIC[8].icell.Ien VPWR.t1150 sky130_fd_pr__pfet_01v8 ad=0.0675 pd=0.77 as=0.0725 ps=0.79 w=0.5 l=0.15
X123 XThC.Tn[9].t7 XThC.XTB2.Y VPWR.t1374 VPWR.t825 sky130_fd_pr__pfet_01v8_hvt ad=0.135 pd=1.27 as=0.135 ps=1.27 w=1 l=0.15
X124 XA.XIR[15].XIC[4].icell.Ien VPWR.t365 VPWR.t367 VPWR.t366 sky130_fd_pr__pfet_01v8 ad=0.0725 pd=0.79 as=0.15 ps=1.6 w=0.5 l=0.15
X125 VGND.t1093 Vbias.t14 XA.XIR[12].XIC[2].icell.SM VGND.t1092 sky130_fd_pr__nfet_g5v0d10v5 ad=0.175 pd=1.7 as=0.0625 ps=0.75 w=0.5 l=0.5
X126 XA.XIR[6].XIC[4].icell.SM XA.XIR[6].XIC[4].icell.Ien Iout.t77 VGND.t659 sky130_fd_pr__nfet_g5v0d10v5 ad=0.0625 pd=0.75 as=0.175 ps=1.7 w=0.5 l=0.5
X127 VGND.t1095 Vbias.t15 XA.XIR[11].XIC_15.icell.SM VGND.t1094 sky130_fd_pr__nfet_g5v0d10v5 ad=0.175 pd=1.7 as=0.0625 ps=0.75 w=0.5 l=0.5
X128 XA.XIR[10].XIC_dummy_right.icell.Ien VPWR.t362 VPWR.t364 VPWR.t363 sky130_fd_pr__pfet_01v8 ad=0.0725 pd=0.79 as=0.15 ps=1.6 w=0.5 l=0.15
X129 XThC.Tn[5].t2 XThC.XTBN.Y.t11 VGND.t164 VGND.t135 sky130_fd_pr__nfet_01v8 ad=0.08775 pd=0.92 as=0.08775 ps=0.92 w=0.65 l=0.15
X130 XA.XIR[1].XIC_dummy_right.icell.SM XA.XIR[1].XIC_dummy_right.icell.Ien XA.XIR[1].XIC_dummy_right.icell.Iout VGND.t2335 sky130_fd_pr__nfet_g5v0d10v5 ad=0.0625 pd=0.75 as=0.175 ps=1.7 w=0.5 l=0.5
X131 VGND.t1097 Vbias.t16 XA.XIR[15].XIC[3].icell.SM VGND.t1096 sky130_fd_pr__nfet_g5v0d10v5 ad=0.175 pd=1.7 as=0.0625 ps=0.75 w=0.5 l=0.5
X132 VGND.t1099 Vbias.t17 XA.XIR[14].XIC[4].icell.SM VGND.t1098 sky130_fd_pr__nfet_g5v0d10v5 ad=0.175 pd=1.7 as=0.0625 ps=0.75 w=0.5 l=0.5
X133 VGND.t386 XThC.Tn[6].t14 XA.XIR[6].XIC[6].icell.PDM VGND.t385 sky130_fd_pr__nfet_01v8 ad=0.0725 pd=0.79 as=0.0725 ps=0.79 w=0.5 l=0.15
X134 VPWR.t1201 XThR.Tn[8].t16 XA.XIR[9].XIC[4].icell.PUM VPWR.t1200 sky130_fd_pr__pfet_01v8 ad=0.135 pd=1.54 as=0.0675 ps=0.77 w=0.5 l=0.15
X135 VPWR.t1892 XThR.Tn[12].t15 XA.XIR[13].XIC[12].icell.PUM VPWR.t1891 sky130_fd_pr__pfet_01v8 ad=0.135 pd=1.54 as=0.0675 ps=0.77 w=0.5 l=0.15
X136 VGND.t1479 VGND.t1477 XA.XIR[13].XIC_dummy_right.icell.SM VGND.t1478 sky130_fd_pr__nfet_g5v0d10v5 ad=0.175 pd=1.7 as=0.0625 ps=0.75 w=0.5 l=0.5
X137 XThR.Tn[9].t11 XThR.XTB2.Y a_n997_3755# VGND.t455 sky130_fd_pr__nfet_01v8 ad=0.08775 pd=0.92 as=0.169 ps=1.82 w=0.65 l=0.15
X138 XThC.Tn[0].t6 XThC.XTBN.Y.t12 a_2979_9615# VPWR.t487 sky130_fd_pr__pfet_01v8_hvt ad=0.135 pd=1.27 as=0.135 ps=1.27 w=1 l=0.15
X139 XA.XIR[4].XIC_dummy_left.icell.PDM VPWR.t1932 VGND.t1868 VGND.t1867 sky130_fd_pr__nfet_01v8 ad=0.1312 pd=1.54 as=0.0725 ps=0.79 w=0.5 l=0.15
X140 XThC.Tn[5].t6 XThC.XTBN.Y.t13 a_5949_9615# VPWR.t460 sky130_fd_pr__pfet_01v8_hvt ad=0.135 pd=1.27 as=0.27 ps=2.54 w=1 l=0.15
X141 VGND.t86 XThC.XTB5.Y XThC.Tn[4].t2 VGND.t83 sky130_fd_pr__nfet_01v8 ad=0.08775 pd=0.92 as=0.08775 ps=0.92 w=0.65 l=0.15
X142 XA.XIR[14].XIC[1].icell.PUM XThC.Tn[1].t14 XA.XIR[14].XIC[1].icell.Ien VPWR.t1693 sky130_fd_pr__pfet_01v8 ad=0.0675 pd=0.77 as=0.0725 ps=0.79 w=0.5 l=0.15
X143 VGND.t1101 Vbias.t18 XA.XIR[9].XIC[2].icell.SM VGND.t1100 sky130_fd_pr__nfet_g5v0d10v5 ad=0.175 pd=1.7 as=0.0625 ps=0.75 w=0.5 l=0.5
X144 a_9827_9569# XThC.XTB5.Y XThC.Tn[12].t7 VGND.t82 sky130_fd_pr__nfet_01v8 ad=0.169 pd=1.82 as=0.08775 ps=0.92 w=0.65 l=0.15
X145 XA.XIR[13].XIC[0].icell.PUM XThC.Tn[0].t12 XA.XIR[13].XIC[0].icell.Ien VPWR.t1355 sky130_fd_pr__pfet_01v8 ad=0.0675 pd=0.77 as=0.0725 ps=0.79 w=0.5 l=0.15
X146 XThC.Tn[7].t7 XThC.XTBN.Y.t14 VGND.t112 VGND.t111 sky130_fd_pr__nfet_01v8 ad=0.08775 pd=0.92 as=0.169 ps=1.82 w=0.65 l=0.15
X147 XThC.Tn[2].t6 XThC.XTBN.Y.t15 VGND.t114 VGND.t113 sky130_fd_pr__nfet_01v8 ad=0.08775 pd=0.92 as=0.169 ps=1.82 w=0.65 l=0.15
X148 VGND.t2466 XThC.Tn[10].t13 XA.XIR[0].XIC[10].icell.PDM VGND.t2465 sky130_fd_pr__nfet_01v8 ad=0.0725 pd=0.79 as=0.0725 ps=0.79 w=0.5 l=0.15
X149 a_n997_1579# XThR.XTBN.Y VGND.t1235 VGND.t1219 sky130_fd_pr__nfet_01v8 ad=0.08775 pd=0.92 as=0.08775 ps=0.92 w=0.65 l=0.15
X150 XA.XIR[6].XIC[14].icell.PDM XThR.Tn[5].t13 VGND.t361 VGND.t360 sky130_fd_pr__nfet_01v8 ad=0.1312 pd=1.54 as=0.0725 ps=0.79 w=0.5 l=0.15
X151 XA.XIR[6].XIC[8].icell.PDM XThR.Tn[5].t14 VGND.t363 VGND.t362 sky130_fd_pr__nfet_01v8 ad=0.1312 pd=1.54 as=0.0725 ps=0.79 w=0.5 l=0.15
X152 XA.XIR[10].XIC_dummy_left.icell.PUM VPWR.t360 XA.XIR[10].XIC_dummy_left.icell.Ien VPWR.t361 sky130_fd_pr__pfet_01v8 ad=0.0675 pd=0.77 as=0.0725 ps=0.79 w=0.5 l=0.15
X153 XA.XIR[9].XIC[14].icell.SM XA.XIR[9].XIC[14].icell.Ien Iout.t53 VGND.t416 sky130_fd_pr__nfet_g5v0d10v5 ad=0.0625 pd=0.75 as=0.175 ps=1.7 w=0.5 l=0.5
X154 VGND.t2133 XThC.Tn[4].t14 XA.XIR[14].XIC[4].icell.PDM VGND.t2132 sky130_fd_pr__nfet_01v8 ad=0.0725 pd=0.79 as=0.0725 ps=0.79 w=0.5 l=0.15
X155 XA.XIR[8].XIC[6].icell.PDM XThR.Tn[8].t17 XA.XIR[8].XIC[6].icell.Ien VGND.t1500 sky130_fd_pr__nfet_01v8 ad=0.0725 pd=0.79 as=0.2304 ps=2.18 w=0.5 l=0.15
X156 XA.XIR[1].XIC[7].icell.PUM XThC.Tn[7].t9 XA.XIR[1].XIC[7].icell.Ien VPWR.t1642 sky130_fd_pr__pfet_01v8 ad=0.0675 pd=0.77 as=0.0725 ps=0.79 w=0.5 l=0.15
X157 XA.XIR[7].XIC[1].icell.PDM XThR.Tn[6].t16 VGND.t1842 VGND.t1841 sky130_fd_pr__nfet_01v8 ad=0.1312 pd=1.54 as=0.0725 ps=0.79 w=0.5 l=0.15
X158 XA.XIR[2].XIC[5].icell.PDM XThR.Tn[1].t16 VGND.t1939 VGND.t1938 sky130_fd_pr__nfet_01v8 ad=0.1312 pd=1.54 as=0.0725 ps=0.79 w=0.5 l=0.15
X159 XA.XIR[11].XIC[7].icell.PDM XThR.Tn[11].t16 XA.XIR[11].XIC[7].icell.Ien VGND.t1883 sky130_fd_pr__nfet_01v8 ad=0.0725 pd=0.79 as=0.2304 ps=2.18 w=0.5 l=0.15
X160 XA.XIR[4].XIC[8].icell.PUM XThC.Tn[8].t13 XA.XIR[4].XIC[8].icell.Ien VPWR.t1151 sky130_fd_pr__pfet_01v8 ad=0.0675 pd=0.77 as=0.0725 ps=0.79 w=0.5 l=0.15
X161 XA.XIR[9].XIC[3].icell.PDM XThR.Tn[8].t18 VGND.t1502 VGND.t1501 sky130_fd_pr__nfet_01v8 ad=0.1312 pd=1.54 as=0.0725 ps=0.79 w=0.5 l=0.15
X162 XA.XIR[0].XIC_15.icell.SM XA.XIR[0].XIC_15.icell.Ien Iout.t148 VGND.t1484 sky130_fd_pr__nfet_g5v0d10v5 ad=0.0625 pd=0.75 as=0.175 ps=1.7 w=0.5 l=0.5
X163 XA.XIR[4].XIC[12].icell.SM XA.XIR[4].XIC[12].icell.Ien Iout.t85 VGND.t866 sky130_fd_pr__nfet_g5v0d10v5 ad=0.0625 pd=0.75 as=0.175 ps=1.7 w=0.5 l=0.5
X164 XA.XIR[14].XIC[9].icell.PDM XThR.Tn[13].t13 VGND.t435 VGND.t434 sky130_fd_pr__nfet_01v8 ad=0.1312 pd=1.54 as=0.0725 ps=0.79 w=0.5 l=0.15
X165 XA.XIR[11].XIC[12].icell.PUM XThC.Tn[12].t13 XA.XIR[11].XIC[12].icell.Ien VPWR.t1348 sky130_fd_pr__pfet_01v8 ad=0.0675 pd=0.77 as=0.0725 ps=0.79 w=0.5 l=0.15
X166 XA.XIR[12].XIC[4].icell.Ien XThR.Tn[12].t16 VPWR.t1894 VPWR.t1893 sky130_fd_pr__pfet_01v8 ad=0.0725 pd=0.79 as=0.15 ps=1.6 w=0.5 l=0.15
X167 XA.XIR[3].XIC[4].icell.SM XA.XIR[3].XIC[4].icell.Ien Iout.t183 VGND.t1753 sky130_fd_pr__nfet_g5v0d10v5 ad=0.0625 pd=0.75 as=0.175 ps=1.7 w=0.5 l=0.5
X168 XA.XIR[15].XIC[0].icell.Ien VPWR.t357 VPWR.t359 VPWR.t358 sky130_fd_pr__pfet_01v8 ad=0.0725 pd=0.79 as=0.15 ps=1.6 w=0.5 l=0.15
X169 VGND.t1103 Vbias.t19 XA.XIR[8].XIC_15.icell.SM VGND.t1102 sky130_fd_pr__nfet_g5v0d10v5 ad=0.175 pd=1.7 as=0.0625 ps=0.75 w=0.5 l=0.5
X170 VGND.t1797 XThC.Tn[14].t13 XA.XIR[8].XIC[14].icell.PDM VGND.t1796 sky130_fd_pr__nfet_01v8 ad=0.0725 pd=0.79 as=0.0725 ps=0.79 w=0.5 l=0.15
X171 XA.XIR[7].XIC_dummy_right.icell.Ien VPWR.t354 VPWR.t356 VPWR.t355 sky130_fd_pr__pfet_01v8 ad=0.0725 pd=0.79 as=0.15 ps=1.6 w=0.5 l=0.15
X172 XA.XIR[4].XIC[0].icell.PDM XThR.Tn[4].t16 XA.XIR[4].XIC[0].icell.Ien VGND.t2050 sky130_fd_pr__nfet_01v8 ad=0.0725 pd=0.79 as=0.2304 ps=2.18 w=0.5 l=0.15
X173 VGND.t1314 XThC.Tn[8].t14 XA.XIR[8].XIC[8].icell.PDM VGND.t1313 sky130_fd_pr__nfet_01v8 ad=0.0725 pd=0.79 as=0.0725 ps=0.79 w=0.5 l=0.15
X174 XA.XIR[14].XIC[14].icell.Ien XThR.Tn[14].t13 VPWR.t1872 VPWR.t1871 sky130_fd_pr__pfet_01v8 ad=0.0725 pd=0.79 as=0.15 ps=1.6 w=0.5 l=0.15
X175 VGND.t116 XThC.XTBN.Y.t16 XThC.Tn[1].t7 VGND.t115 sky130_fd_pr__nfet_01v8 ad=0.08775 pd=0.92 as=0.08775 ps=0.92 w=0.65 l=0.15
X176 VGND.t1105 Vbias.t20 XA.XIR[1].XIC[5].icell.SM VGND.t1104 sky130_fd_pr__nfet_g5v0d10v5 ad=0.175 pd=1.7 as=0.0625 ps=0.75 w=0.5 l=0.5
X177 VPWR.t1896 XThR.Tn[12].t17 XA.XIR[13].XIC[10].icell.PUM VPWR.t1895 sky130_fd_pr__pfet_01v8 ad=0.135 pd=1.54 as=0.0675 ps=0.77 w=0.5 l=0.15
X178 XA.XIR[7].XIC[3].icell.PUM XThC.Tn[3].t13 XA.XIR[7].XIC[3].icell.Ien VPWR.t1747 sky130_fd_pr__pfet_01v8 ad=0.0675 pd=0.77 as=0.0725 ps=0.79 w=0.5 l=0.15
X179 XA.XIR[2].XIC_15.icell.PUM VPWR.t352 XA.XIR[2].XIC_15.icell.Ien VPWR.t353 sky130_fd_pr__pfet_01v8 ad=0.0675 pd=0.77 as=0.0725 ps=0.79 w=0.5 l=0.15
X180 XA.XIR[2].XIC[13].icell.PDM XThR.Tn[2].t15 XA.XIR[2].XIC[13].icell.Ien VGND.t408 sky130_fd_pr__nfet_01v8 ad=0.0725 pd=0.79 as=0.2304 ps=2.18 w=0.5 l=0.15
X181 VPWR.t1281 XThR.Tn[9].t15 XA.XIR[10].XIC[12].icell.PUM VPWR.t1280 sky130_fd_pr__pfet_01v8 ad=0.135 pd=1.54 as=0.0675 ps=0.77 w=0.5 l=0.15
X182 VPWR.t1203 XThR.Tn[8].t19 XA.XIR[9].XIC[0].icell.PUM VPWR.t1202 sky130_fd_pr__pfet_01v8 ad=0.135 pd=1.54 as=0.0675 ps=0.77 w=0.5 l=0.15
X183 VGND.t1107 Vbias.t21 XA.XIR[4].XIC[6].icell.SM VGND.t1106 sky130_fd_pr__nfet_g5v0d10v5 ad=0.175 pd=1.7 as=0.0625 ps=0.75 w=0.5 l=0.5
X184 XA.XIR[1].XIC_dummy_left.icell.PDM VPWR.t1933 VGND.t1870 VGND.t1869 sky130_fd_pr__nfet_01v8 ad=0.1312 pd=1.54 as=0.0725 ps=0.79 w=0.5 l=0.15
X185 VPWR.t351 VPWR.t349 XA.XIR[6].XIC_dummy_left.icell.PUM VPWR.t350 sky130_fd_pr__pfet_01v8 ad=0.135 pd=1.54 as=0.0675 ps=0.77 w=0.5 l=0.15
X186 VPWR.t462 XThC.XTBN.Y.t17 XThC.Tn[10].t0 VPWR.t461 sky130_fd_pr__pfet_01v8_hvt ad=0.135 pd=1.27 as=0.135 ps=1.27 w=1 l=0.15
X187 VGND.t1234 XThR.XTBN.Y XThR.Tn[3].t4 VGND.t1197 sky130_fd_pr__nfet_01v8 ad=0.169 pd=1.82 as=0.08775 ps=0.92 w=0.65 l=0.15
X188 XA.XIR[3].XIC[11].icell.PDM XThR.Tn[2].t16 VGND.t27 VGND.t26 sky130_fd_pr__nfet_01v8 ad=0.1312 pd=1.54 as=0.0725 ps=0.79 w=0.5 l=0.15
X189 XA.XIR[6].XIC[8].icell.Ien XThR.Tn[6].t17 VPWR.t1418 VPWR.t1417 sky130_fd_pr__pfet_01v8 ad=0.0725 pd=0.79 as=0.15 ps=1.6 w=0.5 l=0.15
X190 XThR.Tn[0].t5 XThR.XTBN.Y a_n1049_8581# VPWR.t1101 sky130_fd_pr__pfet_01v8_hvt ad=0.135 pd=1.27 as=0.135 ps=1.27 w=1 l=0.15
X191 XA.XIR[13].XIC[12].icell.Ien XThR.Tn[13].t14 VPWR.t1431 VPWR.t1430 sky130_fd_pr__pfet_01v8 ad=0.0725 pd=0.79 as=0.15 ps=1.6 w=0.5 l=0.15
X192 XA.XIR[13].XIC[7].icell.SM XA.XIR[13].XIC[7].icell.Ien Iout.t250 VGND.t2573 sky130_fd_pr__nfet_g5v0d10v5 ad=0.0625 pd=0.75 as=0.175 ps=1.7 w=0.5 l=0.5
X193 VPWR.t1193 VGND.t2688 XA.XIR[0].XIC[8].icell.PUM VPWR.t1192 sky130_fd_pr__pfet_01v8 ad=0.135 pd=1.54 as=0.0675 ps=0.77 w=0.5 l=0.15
X194 XA.XIR[10].XIC[14].icell.PDM XThR.Tn[10].t13 XA.XIR[10].XIC[14].icell.Ien VGND.t1487 sky130_fd_pr__nfet_01v8 ad=0.0725 pd=0.79 as=0.2304 ps=2.18 w=0.5 l=0.15
X195 XA.XIR[10].XIC[8].icell.PDM XThR.Tn[10].t14 XA.XIR[10].XIC[8].icell.Ien VGND.t1488 sky130_fd_pr__nfet_01v8 ad=0.0725 pd=0.79 as=0.2304 ps=2.18 w=0.5 l=0.15
X196 XThC.Tn[12].t2 XThC.XTB5.Y VPWR.t437 VPWR.t431 sky130_fd_pr__pfet_01v8_hvt ad=0.135 pd=1.27 as=0.135 ps=1.27 w=1 l=0.15
X197 XA.XIR[1].XIC[11].icell.PUM XThC.Tn[11].t14 XA.XIR[1].XIC[11].icell.Ien VPWR.t695 sky130_fd_pr__pfet_01v8 ad=0.0675 pd=0.77 as=0.0725 ps=0.79 w=0.5 l=0.15
X198 XThR.Tn[11].t7 XThR.XTBN.Y VPWR.t1100 VPWR.t1089 sky130_fd_pr__pfet_01v8_hvt ad=0.135 pd=1.27 as=0.135 ps=1.27 w=1 l=0.15
X199 XA.XIR[0].XIC[7].icell.Ien XThR.Tn[0].t14 VPWR.t1408 VPWR.t1407 sky130_fd_pr__pfet_01v8 ad=0.0725 pd=0.79 as=0.15 ps=1.6 w=0.5 l=0.15
X200 XA.XIR[3].XIC[2].icell.PDM XThR.Tn[2].t17 VGND.t25 VGND.t24 sky130_fd_pr__nfet_01v8 ad=0.1312 pd=1.54 as=0.0725 ps=0.79 w=0.5 l=0.15
X201 XA.XIR[8].XIC[9].icell.PUM XThC.Tn[9].t14 XA.XIR[8].XIC[9].icell.Ien VPWR.t804 sky130_fd_pr__pfet_01v8 ad=0.0675 pd=0.77 as=0.0725 ps=0.79 w=0.5 l=0.15
X202 XA.XIR[9].XIC[7].icell.PDM XThR.Tn[8].t20 VGND.t1504 VGND.t1503 sky130_fd_pr__nfet_01v8 ad=0.1312 pd=1.54 as=0.0725 ps=0.79 w=0.5 l=0.15
X203 XA.XIR[1].XIC_dummy_left.icell.SM XA.XIR[1].XIC_dummy_left.icell.Ien XA.XIR[1].XIC_dummy_left.icell.Iout VGND.t283 sky130_fd_pr__nfet_g5v0d10v5 ad=0.0625 pd=0.75 as=0.175 ps=1.7 w=0.5 l=0.5
X204 XA.XIR[6].XIC[3].icell.PDM XThR.Tn[5].t15 VGND.t365 VGND.t364 sky130_fd_pr__nfet_01v8 ad=0.1312 pd=1.54 as=0.0725 ps=0.79 w=0.5 l=0.15
X205 VGND.t450 XThC.Tn[11].t15 XA.XIR[5].XIC[11].icell.PDM VGND.t449 sky130_fd_pr__nfet_01v8 ad=0.0725 pd=0.79 as=0.0725 ps=0.79 w=0.5 l=0.15
X206 XA.XIR[11].XIC[10].icell.PUM XThC.Tn[10].t14 XA.XIR[11].XIC[10].icell.Ien VPWR.t1783 sky130_fd_pr__pfet_01v8 ad=0.0675 pd=0.77 as=0.0725 ps=0.79 w=0.5 l=0.15